<?xml version="1.0" encoding="UTF-8"?>
<net>
    <edges>
    <edge id="A_B" from="A" to="B" length="10" speed="60" />
    <edge id="B_C" from="B" to="C" length="12" speed="50" />
    <edge id="B_D" from="B" to="D" length="15" speed="40" />
    <edge id="C_D" from="C" to="D" length="8" speed="40" />
    <edge id="D_E" from="D" to="E" length="5" speed="30" />
    </edges>

    <nodes>
    <node id="A" x="0" y="0" />
    <node id="B" x="10" y="0" />
    <node id="C" x="20" y="8" />
    <node id="D" x="5" y="-15" />
    <node id="E" x="-15" y="5" />
    </nodes>
</net>