
<?xml version='1.0' encoding='UTF-8'?>
<routes>
    <vehicle id="vehicle_1_B_0" depart="0" route="B" color="1,0,0">
        <route edges="B" />
    </vehicle>
    <vehicle id="vehicle_2_A_0" depart="0" route="A" color="1,0,0">
        <route edges="A" />
    </vehicle>
    <vehicle id="vehicle_3_C_0" depart="0" route="C" color="1,0,0">
        <route edges="C" />
    </vehicle>
    <vehicle id="vehicle_4_D_0" depart="0" route="D" color="1,0,0">
        <route edges="D" />
    </vehicle>
    <vehicle id="vehicle_5_A_0" depart="0" route="A" color="1,0,0">
        <route edges="A" />
    </vehicle>
    <vehicle id="vehicle_5_E_0" depart="0" route="E" color="1,0,0">
        <route edges="E" />
    </vehicle>
</routes>