<NUMBER OF ZONES> 5
<TOTAL OD FLOW> 0.0
<END OF METADATA>

Origin 1
A : 0.0; B : 10.0;
B : -10.0; C : 8.0; D : -15.0; E : 5.0;

Origin 2
A : 5.0; B : 0.0;
B : 0.0; C : 12.0; D : -5.0; E : -20.0;

Origin 3
A : 0.0; B : 0.0;
C : -12.0; D : 15.0; E : 5.0;

Origin 4
A : 0.0; B : 0.0;
D : -15.0; E : 15.0;

Origin 5
A : -20.0; B : 5.0;
E : -15.0;