<configuration> 
	<input> 
 		<node-files value="nodes.xml"/>
        <edge-files value="edges.xml"/>
	</input>
	<time> 
		<begin value="0" /> 
		<end value="2000" /> 
	</time> 
	<gui_only>
		<time-to-teleport value="0"/>
		<step-length value="0.1"/>
		<remote-port value="8080"/>
		<start value="false"/>
	</gui_only>
</configuration>