<?xml version="1.0" encoding="UTF-8"?>

<!-- generated on 2023-05-18 22:21:10.241986 by randomTrips.py v1_17_0+0000-737931d58da
<configuration>
    <net-file value="src/sumo_data/network.net.xml"/>
    <route-file value="src/sumo_data/routes.xml"/>
    <end value="50"/>
    <period value="1.0"/>
</configuration>
-->

<routes xmlns:xsi="http://www.w3.org/2001/XMLSchema-instance" xsi:noNamespaceSchemaLocation="http://sumo.dlr.de/xsd/routes_file.xsd">
    <trip id="0" depart="0.00" from="5-1" to="1-5"/>
    <trip id="1" depart="1.00" from="12-8" to="12-11"/>
    <trip id="2" depart="2.00" from="6-2" to="5-9"/>
    <trip id="3" depart="3.00" from="8-4" to="10-14"/>
    <trip id="4" depart="4.00" from="16-12" to="1-5"/>
    <trip id="5" depart="5.00" from="12-11" to="2-6"/>
    <trip id="6" depart="6.00" from="1-5" to="11-15"/>
    <trip id="7" depart="7.00" from="5-1" to="3-4"/>
    <trip id="8" depart="8.00" from="12-11" to="4-3"/>
    <trip id="9" depart="9.00" from="7-3" to="1-2"/>
    <trip id="10" depart="10.00" from="7-3" to="6-10"/>
    <trip id="11" depart="11.00" from="14-10" to="11-10"/>
    <trip id="12" depart="12.00" from="9-13" to="14-15"/>
    <trip id="13" depart="13.00" from="10-6" to="10-6"/>
    <trip id="14" depart="14.00" from="7-6" to="4-8"/>
    <trip id="15" depart="15.00" from="7-3" to="6-2"/>
    <trip id="16" depart="16.00" from="3-2" to="9-13"/>
    <trip id="17" depart="17.00" from="15-11" to="3-4"/>
    <trip id="18" depart="18.00" from="7-6" to="4-8"/>
    <trip id="19" depart="19.00" from="7-8" to="3-7"/>
    <trip id="20" depart="20.00" from="6-10" to="10-11"/>
    <trip id="21" depart="21.00" from="12-11" to="13-14"/>
    <trip id="22" depart="22.00" from="10-14" to="12-11"/>
    <trip id="23" depart="23.00" from="10-6" to="12-8"/>
    <trip id="24" depart="24.00" from="5-1" to="15-11"/>
    <trip id="25" depart="25.00" from="15-11" to="11-7"/>
    <trip id="26" depart="26.00" from="12-8" to="9-10"/>
    <trip id="27" depart="27.00" from="5-1" to="4-8"/>
    <trip id="28" depart="28.00" from="11-12" to="6-2"/>
    <trip id="29" depart="29.00" from="11-12" to="15-16"/>
    <trip id="30" depart="30.00" from="9-5" to="5-1"/>
    <trip id="31" depart="31.00" from="3-4" to="5-9"/>
    <trip id="32" depart="32.00" from="7-6" to="6-7"/>
    <trip id="33" depart="33.00" from="12-11" to="1-5"/>
    <trip id="34" depart="34.00" from="13-9" to="12-8"/>
    <trip id="35" depart="35.00" from="11-7" to="9-10"/>
    <trip id="36" depart="36.00" from="8-12" to="14-10"/>
    <trip id="37" depart="37.00" from="5-6" to="15-16"/>
    <trip id="38" depart="38.00" from="8-7" to="2-1"/>
    <trip id="39" depart="39.00" from="12-8" to="12-16"/>
    <trip id="40" depart="40.00" from="3-4" to="12-16"/>
    <trip id="41" depart="41.00" from="3-7" to="8-4"/>
    <trip id="42" depart="42.00" from="15-16" to="11-7"/>
    <trip id="43" depart="43.00" from="9-5" to="2-6"/>
    <trip id="44" depart="44.00" from="10-6" to="10-11"/>
    <trip id="45" depart="45.00" from="10-9" to="5-1"/>
    <trip id="46" depart="46.00" from="7-11" to="16-12"/>
    <trip id="47" depart="47.00" from="10-11" to="15-16"/>
    <trip id="48" depart="48.00" from="9-5" to="3-2"/>
    <trip id="49" depart="49.00" from="9-13" to="7-8"/>
</routes>
