<configuration> 
	<input> 
 		<net-file value=" network.net.xml" />
		<route-files value=" grid.rou.xml" />
	</input>
	<time> 
		<begin value="0" /> 
		<end value="2000" />
	</time> 
	<gui_only>
		<time-to-teleport value="0"/>
		<step-length value="0.1"/>
		<remote-port value="8080"/>
		<start value="false"/>
	</gui_only>
</configuration>