<?xml version="1.0" encoding="UTF-8"?>

<!-- generated on 2023-05-02 02:46:33 by Eclipse SUMO netconvert Version 1.17.0
<configuration xmlns:xsi="http://www.w3.org/2001/XMLSchema-instance" xsi:noNamespaceSchemaLocation="http://sumo.dlr.de/xsd/netconvertConfiguration.xsd">

    <input>
        <node-files value="src/sumo_data/nodes.xml"/>
        <edge-files value="src\sumo_data\edges.xml"/>
    </input>

    <output>
        <output-file value="src\sumo_data\network.net.xml"/>
    </output>

</configuration>
-->

<net version="1.16" junctionCornerDetail="5" limitTurnSpeed="5.50" xmlns:xsi="http://www.w3.org/2001/XMLSchema-instance" xsi:noNamespaceSchemaLocation="http://sumo.dlr.de/xsd/net_file.xsd">

    <location netOffset="150.00,150.00" convBoundary="0.00,0.00,300.00,300.00" origBoundary="-150.00,-150.00,150.00,150.00" projParameter="!"/>

    <edge id=":1_0" function="internal">
        <lane id=":1_0_0" index="0" speed="6.08" length="7.74" shape="3.20,301.60 1.10,301.30 -0.40,300.40 -1.30,298.90 -1.60,296.80"/>
    </edge>
    <edge id=":1_1" function="internal">
        <lane id=":1_1_0" index="0" speed="3.90" length="2.58" shape="1.60,296.80 1.70,297.50 2.00,298.00 2.50,298.30 3.20,298.40"/>
    </edge>
    <edge id=":2_0" function="internal">
        <lane id=":2_0_0" index="0" speed="80.00" length="14.40" shape="-1.60,157.20 -1.60,142.80"/>
    </edge>
    <edge id=":2_1" function="internal">
        <lane id=":2_1_0" index="0" speed="8.00" length="4.07" shape="-1.60,157.20 -1.05,153.35 -0.96,153.20"/>
    </edge>
    <edge id=":2_2" function="internal">
        <lane id=":2_2_0" index="0" speed="3.65" length="1.44" shape="-1.60,157.20 -0.80,156.00"/>
    </edge>
    <edge id=":2_9" function="internal">
        <lane id=":2_9_0" index="0" speed="8.00" length="10.13" shape="-0.96,153.20 0.60,150.60 3.35,148.95 7.20,148.40"/>
    </edge>
    <edge id=":2_10" function="internal">
        <lane id=":2_10_0" index="0" speed="3.65" length="3.23" shape="-0.80,156.00 0.00,155.60 0.80,156.00 1.60,157.20"/>
    </edge>
    <edge id=":2_3" function="internal">
        <lane id=":2_3_0" index="0" speed="6.51" length="9.03" shape="7.20,151.60 4.75,151.95 3.00,153.00 1.95,154.75 1.60,157.20"/>
    </edge>
    <edge id=":2_4" function="internal">
        <lane id=":2_4_0" index="0" speed="8.00" length="14.19" shape="7.20,151.60 3.35,151.05 0.60,149.40 -1.05,146.65 -1.60,142.80"/>
    </edge>
    <edge id=":2_5" function="internal">
        <lane id=":2_5_0" index="0" speed="3.65" length="4.67" shape="7.20,151.60 6.00,150.80 5.60,150.00 6.00,149.20 7.20,148.40"/>
    </edge>
    <edge id=":2_6" function="internal">
        <lane id=":2_6_0" index="0" speed="6.51" length="9.03" shape="1.60,142.80 1.95,145.25 3.00,147.00 4.75,148.05 7.20,148.40"/>
    </edge>
    <edge id=":2_7" function="internal">
        <lane id=":2_7_0" index="0" speed="80.00" length="14.40" shape="1.60,142.80 1.60,157.20"/>
    </edge>
    <edge id=":2_8" function="internal">
        <lane id=":2_8_0" index="0" speed="3.65" length="1.44" shape="1.60,142.80 0.80,144.00"/>
    </edge>
    <edge id=":2_11" function="internal">
        <lane id=":2_11_0" index="0" speed="3.65" length="3.23" shape="0.80,144.00 0.00,144.40 -0.80,144.00 -1.60,142.80"/>
    </edge>
    <edge id=":3_0" function="internal">
        <lane id=":3_0_0" index="0" speed="6.08" length="7.74" shape="-1.60,3.20 -1.30,1.10 -0.40,-0.40 1.10,-1.30 3.20,-1.60"/>
    </edge>
    <edge id=":3_1" function="internal">
        <lane id=":3_1_0" index="0" speed="3.90" length="2.58" shape="3.20,1.60 2.50,1.70 2.00,2.00 1.70,2.50 1.60,3.20"/>
    </edge>
    <edge id=":4_0" function="internal">
        <lane id=":4_0_0" index="0" speed="80.00" length="14.40" shape="157.20,301.60 142.80,301.60"/>
    </edge>
    <edge id=":4_1" function="internal">
        <lane id=":4_1_0" index="0" speed="8.00" length="4.07" shape="157.20,301.60 153.35,301.05 153.20,300.96"/>
    </edge>
    <edge id=":4_2" function="internal">
        <lane id=":4_2_0" index="0" speed="3.65" length="1.44" shape="157.20,301.60 156.00,300.80"/>
    </edge>
    <edge id=":4_9" function="internal">
        <lane id=":4_9_0" index="0" speed="8.00" length="10.13" shape="153.20,300.96 150.60,299.40 148.95,296.65 148.40,292.80"/>
    </edge>
    <edge id=":4_10" function="internal">
        <lane id=":4_10_0" index="0" speed="3.65" length="3.23" shape="156.00,300.80 155.60,300.00 156.00,299.20 157.20,298.40"/>
    </edge>
    <edge id=":4_3" function="internal">
        <lane id=":4_3_0" index="0" speed="6.51" length="9.03" shape="151.60,292.80 151.95,295.25 153.00,297.00 154.75,298.05 157.20,298.40"/>
    </edge>
    <edge id=":4_4" function="internal">
        <lane id=":4_4_0" index="0" speed="8.00" length="14.19" shape="151.60,292.80 151.05,296.65 149.40,299.40 146.65,301.05 142.80,301.60"/>
    </edge>
    <edge id=":4_5" function="internal">
        <lane id=":4_5_0" index="0" speed="3.65" length="4.67" shape="151.60,292.80 150.80,294.00 150.00,294.40 149.20,294.00 148.40,292.80"/>
    </edge>
    <edge id=":4_6" function="internal">
        <lane id=":4_6_0" index="0" speed="6.51" length="9.03" shape="142.80,298.40 145.25,298.05 147.00,297.00 148.05,295.25 148.40,292.80"/>
    </edge>
    <edge id=":4_7" function="internal">
        <lane id=":4_7_0" index="0" speed="80.00" length="14.40" shape="142.80,298.40 157.20,298.40"/>
    </edge>
    <edge id=":4_8" function="internal">
        <lane id=":4_8_0" index="0" speed="3.65" length="1.44" shape="142.80,298.40 144.00,299.20"/>
    </edge>
    <edge id=":4_11" function="internal">
        <lane id=":4_11_0" index="0" speed="3.65" length="3.23" shape="144.00,299.20 144.40,300.00 144.00,300.80 142.80,301.60"/>
    </edge>
    <edge id=":5_0" function="internal">
        <lane id=":5_0_0" index="0" speed="6.51" length="9.03" shape="148.40,157.20 148.05,154.75 147.00,153.00 145.25,151.95 142.80,151.60"/>
    </edge>
    <edge id=":5_1" function="internal">
        <lane id=":5_1_0" index="0" speed="60.00" length="14.40" shape="148.40,157.20 148.40,142.80"/>
    </edge>
    <edge id=":5_2" function="internal">
        <lane id=":5_2_0" index="0" speed="8.00" length="4.07" shape="148.40,157.20 148.95,153.35 149.04,153.20"/>
    </edge>
    <edge id=":5_3" function="internal">
        <lane id=":5_3_0" index="0" speed="3.65" length="1.44" shape="148.40,157.20 149.20,156.00"/>
    </edge>
    <edge id=":5_16" function="internal">
        <lane id=":5_16_0" index="0" speed="8.00" length="10.13" shape="149.04,153.20 150.60,150.60 153.35,148.95 157.20,148.40"/>
    </edge>
    <edge id=":5_17" function="internal">
        <lane id=":5_17_0" index="0" speed="3.65" length="3.23" shape="149.20,156.00 150.00,155.60 150.80,156.00 151.60,157.20"/>
    </edge>
    <edge id=":5_4" function="internal">
        <lane id=":5_4_0" index="0" speed="6.51" length="9.03" shape="157.20,151.60 154.75,151.95 153.00,153.00 151.95,154.75 151.60,157.20"/>
    </edge>
    <edge id=":5_5" function="internal">
        <lane id=":5_5_0" index="0" speed="60.00" length="14.40" shape="157.20,151.60 142.80,151.60"/>
    </edge>
    <edge id=":5_6" function="internal">
        <lane id=":5_6_0" index="0" speed="8.00" length="14.19" shape="157.20,151.60 153.35,151.05 150.60,149.40 148.95,146.65 148.40,142.80"/>
    </edge>
    <edge id=":5_7" function="internal">
        <lane id=":5_7_0" index="0" speed="3.65" length="4.67" shape="157.20,151.60 156.00,150.80 155.60,150.00 156.00,149.20 157.20,148.40"/>
    </edge>
    <edge id=":5_8" function="internal">
        <lane id=":5_8_0" index="0" speed="6.51" length="9.03" shape="151.60,142.80 151.95,145.25 153.00,147.00 154.75,148.05 157.20,148.40"/>
    </edge>
    <edge id=":5_9" function="internal">
        <lane id=":5_9_0" index="0" speed="60.00" length="14.40" shape="151.60,142.80 151.60,157.20"/>
    </edge>
    <edge id=":5_10" function="internal">
        <lane id=":5_10_0" index="0" speed="8.00" length="4.07" shape="151.60,142.80 151.05,146.65 150.96,146.80"/>
    </edge>
    <edge id=":5_11" function="internal">
        <lane id=":5_11_0" index="0" speed="3.65" length="1.44" shape="151.60,142.80 150.80,144.00"/>
    </edge>
    <edge id=":5_18" function="internal">
        <lane id=":5_18_0" index="0" speed="8.00" length="10.13" shape="150.96,146.80 149.40,149.40 146.65,151.05 142.80,151.60"/>
    </edge>
    <edge id=":5_19" function="internal">
        <lane id=":5_19_0" index="0" speed="3.65" length="3.23" shape="150.80,144.00 150.00,144.40 149.20,144.00 148.40,142.80"/>
    </edge>
    <edge id=":5_12" function="internal">
        <lane id=":5_12_0" index="0" speed="6.51" length="9.03" shape="142.80,148.40 145.25,148.05 147.00,147.00 148.05,145.25 148.40,142.80"/>
    </edge>
    <edge id=":5_13" function="internal">
        <lane id=":5_13_0" index="0" speed="60.00" length="14.40" shape="142.80,148.40 157.20,148.40"/>
    </edge>
    <edge id=":5_14" function="internal">
        <lane id=":5_14_0" index="0" speed="8.00" length="14.19" shape="142.80,148.40 146.65,148.95 149.40,150.60 151.05,153.35 151.60,157.20"/>
    </edge>
    <edge id=":5_15" function="internal">
        <lane id=":5_15_0" index="0" speed="3.65" length="4.67" shape="142.80,148.40 144.00,149.20 144.40,150.00 144.00,150.80 142.80,151.60"/>
    </edge>
    <edge id=":6_0" function="internal">
        <lane id=":6_0_0" index="0" speed="6.51" length="9.03" shape="148.40,7.20 148.05,4.75 147.00,3.00 145.25,1.95 142.80,1.60"/>
    </edge>
    <edge id=":6_1" function="internal">
        <lane id=":6_1_0" index="0" speed="8.00" length="14.19" shape="148.40,7.20 148.95,3.35 150.60,0.60 153.35,-1.05 157.20,-1.60"/>
    </edge>
    <edge id=":6_2" function="internal">
        <lane id=":6_2_0" index="0" speed="3.65" length="4.67" shape="148.40,7.20 149.20,6.00 150.00,5.60 150.80,6.00 151.60,7.20"/>
    </edge>
    <edge id=":6_3" function="internal">
        <lane id=":6_3_0" index="0" speed="80.00" length="14.40" shape="142.80,-1.60 157.20,-1.60"/>
    </edge>
    <edge id=":6_4" function="internal">
        <lane id=":6_4_0" index="0" speed="8.00" length="14.19" shape="142.80,-1.60 146.65,-1.05 149.40,0.60 151.05,3.35 151.60,7.20"/>
    </edge>
    <edge id=":6_5" function="internal">
        <lane id=":6_5_0" index="0" speed="3.65" length="4.67" shape="142.80,-1.60 144.00,-0.80 144.40,0.00 144.00,0.80 142.80,1.60"/>
    </edge>
    <edge id=":7_0" function="internal">
        <lane id=":7_0_0" index="0" speed="6.51" length="9.03" shape="292.80,298.40 295.25,298.05 297.00,297.00 298.05,295.25 298.40,292.80"/>
    </edge>
    <edge id=":7_1" function="internal">
        <lane id=":7_1_0" index="0" speed="3.65" length="4.67" shape="292.80,298.40 294.00,299.20 294.40,300.00 294.00,300.80 292.80,301.60"/>
    </edge>
    <edge id=":8_0" function="internal">
        <lane id=":8_0_0" index="0" speed="6.51" length="9.03" shape="298.40,157.20 298.05,154.75 297.00,153.00 295.25,151.95 292.80,151.60"/>
    </edge>
    <edge id=":8_1" function="internal">
        <lane id=":8_1_0" index="0" speed="80.00" length="14.40" shape="298.40,157.20 298.40,142.80"/>
    </edge>
    <edge id=":8_2" function="internal">
        <lane id=":8_2_0" index="0" speed="6.51" length="9.03" shape="292.80,148.40 295.25,148.05 297.00,147.00 298.05,145.25 298.40,142.80"/>
    </edge>
    <edge id=":8_3" function="internal">
        <lane id=":8_3_0" index="0" speed="3.65" length="4.67" shape="292.80,148.40 294.00,149.20 294.40,150.00 294.00,150.80 292.80,151.60"/>
    </edge>

    <edge id="1-2" from="1" to="2" priority="100">
        <lane id="1-2_0" index="0" speed="80.00" length="139.60" shape="-1.60,296.80 -1.60,157.20"/>
    </edge>
    <edge id="1-4" from="1" to="4" priority="100">
        <lane id="1-4_0" index="0" speed="80.00" length="139.60" shape="3.20,298.40 142.80,298.40"/>
    </edge>
    <edge id="2-1" from="2" to="1" priority="100">
        <lane id="2-1_0" index="0" speed="80.00" length="139.60" shape="1.60,157.20 1.60,296.80"/>
    </edge>
    <edge id="2-3" from="2" to="3" priority="100">
        <lane id="2-3_0" index="0" speed="80.00" length="139.60" shape="-1.60,142.80 -1.60,3.20"/>
    </edge>
    <edge id="2-5" from="2" to="5" priority="100">
        <lane id="2-5_0" index="0" speed="60.00" length="135.60" shape="7.20,148.40 142.80,148.40"/>
    </edge>
    <edge id="3-2" from="3" to="2" priority="100">
        <lane id="3-2_0" index="0" speed="80.00" length="139.60" shape="1.60,3.20 1.60,142.80"/>
    </edge>
    <edge id="3-6" from="3" to="6" priority="100">
        <lane id="3-6_0" index="0" speed="80.00" length="139.60" shape="3.20,-1.60 142.80,-1.60"/>
    </edge>
    <edge id="4-1" from="4" to="1" priority="100">
        <lane id="4-1_0" index="0" speed="80.00" length="139.60" shape="142.80,301.60 3.20,301.60"/>
    </edge>
    <edge id="4-5" from="4" to="5" priority="100">
        <lane id="4-5_0" index="0" speed="60.00" length="135.60" shape="148.40,292.80 148.40,157.20"/>
    </edge>
    <edge id="4-7" from="4" to="7" priority="100">
        <lane id="4-7_0" index="0" speed="80.00" length="135.60" shape="157.20,298.40 292.80,298.40"/>
    </edge>
    <edge id="5-2" from="5" to="2" priority="100">
        <lane id="5-2_0" index="0" speed="60.00" length="135.60" shape="142.80,151.60 7.20,151.60"/>
    </edge>
    <edge id="5-4" from="5" to="4" priority="100">
        <lane id="5-4_0" index="0" speed="60.00" length="135.60" shape="151.60,157.20 151.60,292.80"/>
    </edge>
    <edge id="5-6" from="5" to="6" priority="100">
        <lane id="5-6_0" index="0" speed="60.00" length="135.60" shape="148.40,142.80 148.40,7.20"/>
    </edge>
    <edge id="5-8" from="5" to="8" priority="100">
        <lane id="5-8_0" index="0" speed="60.00" length="135.60" shape="157.20,148.40 292.80,148.40"/>
    </edge>
    <edge id="6-3" from="6" to="3" priority="100">
        <lane id="6-3_0" index="0" speed="80.00" length="139.60" shape="142.80,1.60 3.20,1.60"/>
    </edge>
    <edge id="6-5" from="6" to="5" priority="100">
        <lane id="6-5_0" index="0" speed="60.00" length="135.60" shape="151.60,7.20 151.60,142.80"/>
    </edge>
    <edge id="6-9" from="6" to="9" priority="100">
        <lane id="6-9_0" index="0" speed="80.00" length="138.10" shape="157.20,-1.60 295.30,-1.60"/>
    </edge>
    <edge id="7-4" from="7" to="4" priority="100">
        <lane id="7-4_0" index="0" speed="80.00" length="135.60" shape="292.80,301.60 157.20,301.60"/>
    </edge>
    <edge id="7-8" from="7" to="8" priority="100">
        <lane id="7-8_0" index="0" speed="80.00" length="135.60" shape="298.40,292.80 298.40,157.20"/>
    </edge>
    <edge id="8-5" from="8" to="5" priority="100">
        <lane id="8-5_0" index="0" speed="60.00" length="135.60" shape="292.80,151.60 157.20,151.60"/>
    </edge>
    <edge id="8-9" from="8" to="9" priority="100">
        <lane id="8-9_0" index="0" speed="80.00" length="141.30" shape="298.40,142.80 298.40,1.50"/>
    </edge>

    <junction id="1" type="priority" x="0.00" y="300.00" incLanes="4-1_0 2-1_0" intLanes=":1_0_0 :1_1_0" shape="3.20,303.20 3.20,296.80 -3.20,296.80 -2.49,300.36 -1.60,301.60 -0.36,302.49 1.24,303.02">
        <request index="0" response="00" foes="00" cont="0"/>
        <request index="1" response="00" foes="00" cont="0"/>
    </junction>
    <junction id="2" type="priority" x="0.00" y="150.00" incLanes="1-2_0 5-2_0 3-2_0" intLanes=":2_0_0 :2_9_0 :2_10_0 :2_3_0 :2_4_0 :2_5_0 :2_6_0 :2_7_0 :2_11_0" shape="-3.20,157.20 3.20,157.20 3.64,154.98 4.20,154.20 4.98,153.64 5.98,153.31 7.20,153.20 7.20,146.80 4.98,146.36 4.20,145.80 3.64,145.02 3.31,144.02 3.20,142.80 -3.20,142.80">
        <request index="0" response="000000000" foes="100010000" cont="0"/>
        <request index="1" response="011000000" foes="011110000" cont="1"/>
        <request index="2" response="010001000" foes="010001000" cont="1"/>
        <request index="3" response="010000000" foes="010000100" cont="0"/>
        <request index="4" response="010000011" foes="110000011" cont="0"/>
        <request index="5" response="001000010" foes="001000010" cont="0"/>
        <request index="6" response="000000000" foes="000100010" cont="0"/>
        <request index="7" response="000000000" foes="000011110" cont="0"/>
        <request index="8" response="000010001" foes="000010001" cont="1"/>
    </junction>
    <junction id="3" type="priority" x="0.00" y="0.00" incLanes="2-3_0 6-3_0" intLanes=":3_0_0 :3_1_0" shape="-3.20,3.20 3.20,3.20 3.20,-3.20 -0.36,-2.49 -1.60,-1.60 -2.49,-0.36 -3.02,1.24">
        <request index="0" response="00" foes="00" cont="0"/>
        <request index="1" response="00" foes="00" cont="0"/>
    </junction>
    <junction id="4" type="priority" x="150.00" y="300.00" incLanes="7-4_0 5-4_0 1-4_0" intLanes=":4_0_0 :4_9_0 :4_10_0 :4_3_0 :4_4_0 :4_5_0 :4_6_0 :4_7_0 :4_11_0" shape="157.20,303.20 157.20,296.80 154.98,296.36 154.20,295.80 153.64,295.02 153.31,294.02 153.20,292.80 146.80,292.80 146.36,295.02 145.80,295.80 145.02,296.36 144.02,296.69 142.80,296.80 142.80,303.20">
        <request index="0" response="000000000" foes="100010000" cont="0"/>
        <request index="1" response="011000000" foes="011110000" cont="1"/>
        <request index="2" response="010001000" foes="010001000" cont="1"/>
        <request index="3" response="010000000" foes="010000100" cont="0"/>
        <request index="4" response="010000011" foes="110000011" cont="0"/>
        <request index="5" response="001000010" foes="001000010" cont="0"/>
        <request index="6" response="000000000" foes="000100010" cont="0"/>
        <request index="7" response="000000000" foes="000011110" cont="0"/>
        <request index="8" response="000010001" foes="000010001" cont="1"/>
    </junction>
    <junction id="5" type="priority" x="150.00" y="150.00" incLanes="4-5_0 8-5_0 6-5_0 2-5_0" intLanes=":5_0_0 :5_1_0 :5_16_0 :5_17_0 :5_4_0 :5_5_0 :5_6_0 :5_7_0 :5_8_0 :5_9_0 :5_18_0 :5_19_0 :5_12_0 :5_13_0 :5_14_0 :5_15_0" shape="146.80,157.20 153.20,157.20 153.64,154.98 154.20,154.20 154.98,153.64 155.98,153.31 157.20,153.20 157.20,146.80 154.98,146.36 154.20,145.80 153.64,145.02 153.31,144.02 153.20,142.80 146.80,142.80 146.36,145.02 145.80,145.80 145.02,146.36 144.02,146.69 142.80,146.80 142.80,153.20 145.02,153.64 145.80,154.20 146.36,154.98 146.69,155.98">
        <request index="0"  response="0000000000000000" foes="1000010000100000" cont="0"/>
        <request index="1"  response="0000000000000000" foes="0111110001100000" cont="0"/>
        <request index="2"  response="0000011100000000" foes="0110011111100000" cont="1"/>
        <request index="3"  response="0100001000010000" foes="0100001000010000" cont="1"/>
        <request index="4"  response="0000001000000000" foes="0100001000001000" cont="0"/>
        <request index="5"  response="0000011000000111" foes="1100011000000111" cont="0"/>
        <request index="6"  response="0011011000000110" foes="0111111000000110" cont="0"/>
        <request index="7"  response="0010000100000100" foes="0010000100000100" cont="0"/>
        <request index="8"  response="0000000000000000" foes="0010000010000100" cont="0"/>
        <request index="9"  response="0000000000000000" foes="0110000001111100" cont="0"/>
        <request index="10" response="0000000000000011" foes="1110000001100111" cont="1"/>
        <request index="11" response="0001000001000010" foes="0001000001000010" cont="1"/>
        <request index="12" response="0000000000000010" foes="0000100001000010" cont="0"/>
        <request index="13" response="0000011100000110" foes="0000011111000110" cont="0"/>
        <request index="14" response="0000011001110110" foes="0000011001111110" cont="0"/>
        <request index="15" response="0000010000100001" foes="0000010000100001" cont="0"/>
    </junction>
    <junction id="6" type="priority" x="150.00" y="0.00" incLanes="5-6_0 3-6_0" intLanes=":6_0_0 :6_1_0 :6_2_0 :6_3_0 :6_4_0 :6_5_0" shape="146.80,7.20 153.20,7.20 153.31,5.00 153.64,3.20 154.20,1.80 154.98,0.80 155.98,0.20 157.20,0.00 157.20,-3.20 142.80,-3.20 142.80,3.20 145.02,3.64 145.80,4.20 146.36,4.98 146.69,5.98">
        <request index="0" response="000000" foes="100000" cont="0"/>
        <request index="1" response="011000" foes="011000" cont="0"/>
        <request index="2" response="010000" foes="010000" cont="0"/>
        <request index="3" response="000000" foes="000010" cont="0"/>
        <request index="4" response="000000" foes="000110" cont="0"/>
        <request index="5" response="000001" foes="000001" cont="0"/>
    </junction>
    <junction id="7" type="priority" x="300.00" y="300.00" incLanes="4-7_0" intLanes=":7_0_0 :7_1_0" shape="300.00,292.80 296.80,292.80 296.36,295.02 295.80,295.80 295.02,296.36 294.02,296.69 292.80,296.80 292.80,303.20 295.00,302.91 296.80,302.04 298.20,300.60 299.20,298.58 299.80,295.98">
        <request index="0" response="00" foes="00" cont="0"/>
        <request index="1" response="00" foes="00" cont="0"/>
    </junction>
    <junction id="8" type="priority" x="300.00" y="150.00" incLanes="7-8_0 5-8_0" intLanes=":8_0_0 :8_1_0 :8_2_0 :8_3_0" shape="296.80,157.20 300.00,157.20 300.00,142.80 296.80,142.80 296.36,145.02 295.80,145.80 295.02,146.36 294.02,146.69 292.80,146.80 292.80,153.20 295.02,153.64 295.80,154.20 296.36,154.98 296.69,155.98">
        <request index="0" response="0000" foes="1000" cont="0"/>
        <request index="1" response="0000" foes="0100" cont="0"/>
        <request index="2" response="0010" foes="0010" cont="0"/>
        <request index="3" response="0001" foes="0001" cont="0"/>
    </junction>
    <junction id="9" type="dead_end" x="300.00" y="0.00" incLanes="8-9_0 6-9_0" intLanes="" shape="296.80,1.50 300.00,1.50 299.48,-1.11 298.82,-2.02 297.91,-2.68 296.74,-3.07 295.30,-3.20 295.30,0.00 296.13,0.17 296.42,0.37 296.63,0.67 296.76,1.04"/>

    <junction id=":2_9_0" type="internal" x="-0.96" y="153.20" incLanes=":2_1_0 3-2_0" intLanes=":2_4_0 :2_5_0 :2_6_0 :2_7_0"/>
    <junction id=":2_10_0" type="internal" x="-0.80" y="156.00" incLanes=":2_2_0 3-2_0 5-2_0" intLanes=":2_3_0 :2_7_0"/>
    <junction id=":2_11_0" type="internal" x="0.80" y="144.00" incLanes=":2_8_0 1-2_0 5-2_0" intLanes=":2_0_0 :2_4_0"/>
    <junction id=":4_9_0" type="internal" x="153.20" y="300.96" incLanes=":4_1_0 1-4_0" intLanes=":4_4_0 :4_5_0 :4_6_0 :4_7_0"/>
    <junction id=":4_10_0" type="internal" x="156.00" y="300.80" incLanes=":4_2_0 1-4_0 5-4_0" intLanes=":4_3_0 :4_7_0"/>
    <junction id=":4_11_0" type="internal" x="144.00" y="299.20" incLanes=":4_8_0 5-4_0 7-4_0" intLanes=":4_0_0 :4_4_0"/>
    <junction id=":5_16_0" type="internal" x="149.04" y="153.20" incLanes=":5_2_0 6-5_0" intLanes=":5_5_0 :5_6_0 :5_7_0 :5_8_0 :5_9_0 :5_13_0 :5_14_0"/>
    <junction id=":5_17_0" type="internal" x="149.20" y="156.00" incLanes=":5_3_0 2-5_0 6-5_0 8-5_0" intLanes=":5_4_0 :5_9_0 :5_14_0"/>
    <junction id=":5_18_0" type="internal" x="150.96" y="146.80" incLanes=":5_10_0 4-5_0" intLanes=":5_0_0 :5_1_0 :5_5_0 :5_6_0 :5_13_0 :5_14_0 :5_15_0"/>
    <junction id=":5_19_0" type="internal" x="150.80" y="144.00" incLanes=":5_11_0 2-5_0 4-5_0 8-5_0" intLanes=":5_1_0 :5_6_0 :5_12_0"/>

    <connection from="1-2" to="2-3" fromLane="0" toLane="0" via=":2_0_0" dir="s" state="M"/>
    <connection from="1-2" to="2-5" fromLane="0" toLane="0" via=":2_1_0" dir="l" state="m"/>
    <connection from="1-2" to="2-1" fromLane="0" toLane="0" via=":2_2_0" dir="t" state="m"/>
    <connection from="1-4" to="4-5" fromLane="0" toLane="0" via=":4_6_0" dir="r" state="M"/>
    <connection from="1-4" to="4-7" fromLane="0" toLane="0" via=":4_7_0" dir="s" state="M"/>
    <connection from="1-4" to="4-1" fromLane="0" toLane="0" via=":4_8_0" dir="t" state="m"/>
    <connection from="2-1" to="1-4" fromLane="0" toLane="0" via=":1_1_0" dir="r" state="M"/>
    <connection from="2-3" to="3-6" fromLane="0" toLane="0" via=":3_0_0" dir="l" state="M"/>
    <connection from="2-5" to="5-6" fromLane="0" toLane="0" via=":5_12_0" dir="r" state="m"/>
    <connection from="2-5" to="5-8" fromLane="0" toLane="0" via=":5_13_0" dir="s" state="m"/>
    <connection from="2-5" to="5-4" fromLane="0" toLane="0" via=":5_14_0" dir="l" state="m"/>
    <connection from="2-5" to="5-2" fromLane="0" toLane="0" via=":5_15_0" dir="t" state="m"/>
    <connection from="3-2" to="2-5" fromLane="0" toLane="0" via=":2_6_0" dir="r" state="M"/>
    <connection from="3-2" to="2-1" fromLane="0" toLane="0" via=":2_7_0" dir="s" state="M"/>
    <connection from="3-2" to="2-3" fromLane="0" toLane="0" via=":2_8_0" dir="t" state="m"/>
    <connection from="3-6" to="6-9" fromLane="0" toLane="0" via=":6_3_0" dir="s" state="M"/>
    <connection from="3-6" to="6-5" fromLane="0" toLane="0" via=":6_4_0" dir="l" state="M"/>
    <connection from="3-6" to="6-3" fromLane="0" toLane="0" via=":6_5_0" dir="t" state="m"/>
    <connection from="4-1" to="1-2" fromLane="0" toLane="0" via=":1_0_0" dir="l" state="M"/>
    <connection from="4-5" to="5-2" fromLane="0" toLane="0" via=":5_0_0" dir="r" state="M"/>
    <connection from="4-5" to="5-6" fromLane="0" toLane="0" via=":5_1_0" dir="s" state="M"/>
    <connection from="4-5" to="5-8" fromLane="0" toLane="0" via=":5_2_0" dir="l" state="m"/>
    <connection from="4-5" to="5-4" fromLane="0" toLane="0" via=":5_3_0" dir="t" state="m"/>
    <connection from="4-7" to="7-8" fromLane="0" toLane="0" via=":7_0_0" dir="r" state="M"/>
    <connection from="4-7" to="7-4" fromLane="0" toLane="0" via=":7_1_0" dir="t" state="M"/>
    <connection from="5-2" to="2-1" fromLane="0" toLane="0" via=":2_3_0" dir="r" state="m"/>
    <connection from="5-2" to="2-3" fromLane="0" toLane="0" via=":2_4_0" dir="l" state="m"/>
    <connection from="5-2" to="2-5" fromLane="0" toLane="0" via=":2_5_0" dir="t" state="m"/>
    <connection from="5-4" to="4-7" fromLane="0" toLane="0" via=":4_3_0" dir="r" state="m"/>
    <connection from="5-4" to="4-1" fromLane="0" toLane="0" via=":4_4_0" dir="l" state="m"/>
    <connection from="5-4" to="4-5" fromLane="0" toLane="0" via=":4_5_0" dir="t" state="m"/>
    <connection from="5-6" to="6-3" fromLane="0" toLane="0" via=":6_0_0" dir="r" state="M"/>
    <connection from="5-6" to="6-9" fromLane="0" toLane="0" via=":6_1_0" dir="l" state="m"/>
    <connection from="5-6" to="6-5" fromLane="0" toLane="0" via=":6_2_0" dir="t" state="m"/>
    <connection from="5-8" to="8-9" fromLane="0" toLane="0" via=":8_2_0" dir="r" state="m"/>
    <connection from="5-8" to="8-5" fromLane="0" toLane="0" via=":8_3_0" dir="t" state="m"/>
    <connection from="6-3" to="3-2" fromLane="0" toLane="0" via=":3_1_0" dir="r" state="M"/>
    <connection from="6-5" to="5-8" fromLane="0" toLane="0" via=":5_8_0" dir="r" state="M"/>
    <connection from="6-5" to="5-4" fromLane="0" toLane="0" via=":5_9_0" dir="s" state="M"/>
    <connection from="6-5" to="5-2" fromLane="0" toLane="0" via=":5_10_0" dir="l" state="m"/>
    <connection from="6-5" to="5-6" fromLane="0" toLane="0" via=":5_11_0" dir="t" state="m"/>
    <connection from="7-4" to="4-1" fromLane="0" toLane="0" via=":4_0_0" dir="s" state="M"/>
    <connection from="7-4" to="4-5" fromLane="0" toLane="0" via=":4_1_0" dir="l" state="m"/>
    <connection from="7-4" to="4-7" fromLane="0" toLane="0" via=":4_2_0" dir="t" state="m"/>
    <connection from="7-8" to="8-5" fromLane="0" toLane="0" via=":8_0_0" dir="r" state="M"/>
    <connection from="7-8" to="8-9" fromLane="0" toLane="0" via=":8_1_0" dir="s" state="M"/>
    <connection from="8-5" to="5-4" fromLane="0" toLane="0" via=":5_4_0" dir="r" state="m"/>
    <connection from="8-5" to="5-2" fromLane="0" toLane="0" via=":5_5_0" dir="s" state="m"/>
    <connection from="8-5" to="5-6" fromLane="0" toLane="0" via=":5_6_0" dir="l" state="m"/>
    <connection from="8-5" to="5-8" fromLane="0" toLane="0" via=":5_7_0" dir="t" state="m"/>

    <connection from=":1_0" to="1-2" fromLane="0" toLane="0" dir="l" state="M"/>
    <connection from=":1_1" to="1-4" fromLane="0" toLane="0" dir="r" state="M"/>
    <connection from=":2_0" to="2-3" fromLane="0" toLane="0" dir="s" state="M"/>
    <connection from=":2_1" to="2-5" fromLane="0" toLane="0" via=":2_9_0" dir="l" state="m"/>
    <connection from=":2_9" to="2-5" fromLane="0" toLane="0" dir="l" state="M"/>
    <connection from=":2_2" to="2-1" fromLane="0" toLane="0" via=":2_10_0" dir="t" state="m"/>
    <connection from=":2_10" to="2-1" fromLane="0" toLane="0" dir="t" state="M"/>
    <connection from=":2_3" to="2-1" fromLane="0" toLane="0" dir="r" state="M"/>
    <connection from=":2_4" to="2-3" fromLane="0" toLane="0" dir="l" state="M"/>
    <connection from=":2_5" to="2-5" fromLane="0" toLane="0" dir="t" state="M"/>
    <connection from=":2_6" to="2-5" fromLane="0" toLane="0" dir="r" state="M"/>
    <connection from=":2_7" to="2-1" fromLane="0" toLane="0" dir="s" state="M"/>
    <connection from=":2_8" to="2-3" fromLane="0" toLane="0" via=":2_11_0" dir="t" state="m"/>
    <connection from=":2_11" to="2-3" fromLane="0" toLane="0" dir="t" state="M"/>
    <connection from=":3_0" to="3-6" fromLane="0" toLane="0" dir="l" state="M"/>
    <connection from=":3_1" to="3-2" fromLane="0" toLane="0" dir="r" state="M"/>
    <connection from=":4_0" to="4-1" fromLane="0" toLane="0" dir="s" state="M"/>
    <connection from=":4_1" to="4-5" fromLane="0" toLane="0" via=":4_9_0" dir="l" state="m"/>
    <connection from=":4_9" to="4-5" fromLane="0" toLane="0" dir="l" state="M"/>
    <connection from=":4_2" to="4-7" fromLane="0" toLane="0" via=":4_10_0" dir="t" state="m"/>
    <connection from=":4_10" to="4-7" fromLane="0" toLane="0" dir="t" state="M"/>
    <connection from=":4_3" to="4-7" fromLane="0" toLane="0" dir="r" state="M"/>
    <connection from=":4_4" to="4-1" fromLane="0" toLane="0" dir="l" state="M"/>
    <connection from=":4_5" to="4-5" fromLane="0" toLane="0" dir="t" state="M"/>
    <connection from=":4_6" to="4-5" fromLane="0" toLane="0" dir="r" state="M"/>