<?xml version="1.0" encoding="UTF-8"?>

<!-- generated on 2023-04-29 21:00:58 by Eclipse SUMO netconvert Version 1.16.0
<configuration xmlns:xsi="http://www.w3.org/2001/XMLSchema-instance" xsi:noNamespaceSchemaLocation="http://sumo.dlr.de/xsd/netconvertConfiguration.xsd">

    <input>
        <node-files value="src/sumo_data/nodes.xml"/>
        <edge-files value="src\sumo_data\edges.xml"/>
    </input>

    <output>
        <output-file value="src\sumo_data\network.net.xml"/>
    </output>

</configuration>
-->

<net version="1.16" junctionCornerDetail="5" limitTurnSpeed="5.50" xmlns:xsi="http://www.w3.org/2001/XMLSchema-instance" xsi:noNamespaceSchemaLocation="http://sumo.dlr.de/xsd/net_file.xsd">

    <location netOffset="150.00,150.00" convBoundary="0.00,0.00,300.00,900.00" origBoundary="-150.00,-150.00,150.00,750.00" projParameter="!"/>

    <edge id=":1_0" function="internal">
        <lane id=":1_0_0" index="0" speed="6.08" length="7.74" shape="-1.60,3.20 -1.30,1.10 -0.40,-0.40 1.10,-1.30 3.20,-1.60"/>
    </edge>
    <edge id=":1_1" function="internal">
        <lane id=":1_1_0" index="0" speed="3.90" length="2.58" shape="3.20,1.60 2.50,1.70 2.00,2.00 1.70,2.50 1.60,3.20"/>
    </edge>
    <edge id=":2_0" function="internal">
        <lane id=":2_0_0" index="0" speed="9.73" length="21.49" shape="11.73,301.60 5.90,300.77 1.73,298.27 -0.77,294.10 -1.60,288.27"/>
    </edge>
    <edge id=":2_1" function="internal">
        <lane id=":2_1_0" index="0" speed="7.42" length="19.31" shape="11.73,301.60 5.59,300.91 2.79,298.84 3.31,295.40 7.16,290.58"/>
    </edge>
    <edge id=":2_2" function="internal">
        <lane id=":2_2_0" index="0" speed="3.65" length="4.67" shape="11.73,301.60 10.53,300.80 10.13,300.00 10.53,299.20 11.73,298.40"/>
    </edge>
    <edge id=":2_3" function="internal">
        <lane id=":2_3_0" index="0" speed="5.47" length="9.74" shape="9.42,292.84 7.48,295.27 7.22,297.01 8.63,298.05 11.73,298.40"/>
    </edge>
    <edge id=":2_4" function="internal">
        <lane id=":2_4_0" index="0" speed="7.42" length="19.31" shape="9.42,292.84 4.60,296.69 1.16,297.21 -0.91,294.41 -1.60,288.27"/>
    </edge>
    <edge id=":2_5" function="internal">
        <lane id=":2_5_0" index="0" speed="3.65" length="4.67" shape="9.42,292.84 8.01,293.12 7.16,292.84 6.88,291.99 7.16,290.58"/>
    </edge>
    <edge id=":2_6" function="internal">
        <lane id=":2_6_0" index="0" speed="5.47" length="9.74" shape="1.60,288.27 1.95,291.37 2.99,292.78 4.73,292.52 7.16,290.58"/>
    </edge>
    <edge id=":2_7" function="internal">
        <lane id=":2_7_0" index="0" speed="8.54" length="16.33" shape="1.60,288.27 2.23,292.70 4.13,295.87 7.30,297.77 11.73,298.40"/>
    </edge>
    <edge id=":2_8" function="internal">
        <lane id=":2_8_0" index="0" speed="3.65" length="4.67" shape="1.60,288.27 0.80,289.47 0.00,289.87 -0.80,289.47 -1.60,288.27"/>
    </edge>
    <edge id=":3_0" function="internal">
        <lane id=":3_0_0" index="0" speed="3.90" length="2.58" shape="298.40,303.20 298.30,302.50 298.00,302.00 297.50,301.70 296.80,301.60"/>
    </edge>
    <edge id=":3_1" function="internal">
        <lane id=":3_1_0" index="0" speed="6.08" length="7.74" shape="296.80,298.40 298.90,298.70 300.40,299.60 301.30,301.10 301.60,303.20"/>
    </edge>
    <edge id=":4_0" function="internal">
        <lane id=":4_0_0" index="0" speed="5.47" length="9.74" shape="298.40,11.73 298.05,8.63 297.01,7.22 295.27,7.48 292.84,9.42"/>
    </edge>
    <edge id=":4_1" function="internal">
        <lane id=":4_1_0" index="0" speed="8.54" length="16.33" shape="298.40,11.73 297.77,7.30 295.87,4.13 292.70,2.23 288.27,1.60"/>
    </edge>
    <edge id=":4_2" function="internal">
        <lane id=":4_2_0" index="0" speed="3.65" length="4.67" shape="298.40,11.73 299.20,10.53 300.00,10.13 300.80,10.53 301.60,11.73"/>
    </edge>
    <edge id=":4_3" function="internal">
        <lane id=":4_3_0" index="0" speed="9.73" length="21.49" shape="288.27,-1.60 294.10,-0.77 298.27,1.73 300.77,5.90 301.60,11.73"/>
    </edge>
    <edge id=":4_4" function="internal">
        <lane id=":4_4_0" index="0" speed="7.42" length="19.31" shape="288.27,-1.60 294.41,-0.91 297.21,1.16 296.69,4.60 292.84,9.42"/>
    </edge>
    <edge id=":4_5" function="internal">
        <lane id=":4_5_0" index="0" speed="3.65" length="4.67" shape="288.27,-1.60 289.47,-0.80 289.87,0.00 289.47,0.80 288.27,1.60"/>
    </edge>
    <edge id=":4_6" function="internal">
        <lane id=":4_6_0" index="0" speed="5.47" length="9.74" shape="290.58,7.16 292.52,4.73 292.78,2.99 291.37,1.95 288.27,1.60"/>
    </edge>
    <edge id=":4_7" function="internal">
        <lane id=":4_7_0" index="0" speed="7.42" length="19.31" shape="290.58,7.16 295.40,3.31 298.84,2.79 300.91,5.59 301.60,11.73"/>
    </edge>
    <edge id=":4_8" function="internal">
        <lane id=":4_8_0" index="0" speed="3.65" length="4.67" shape="290.58,7.16 291.99,6.88 292.84,7.16 293.12,8.01 292.84,9.42"/>
    </edge>
    <edge id=":5_0" function="internal">
        <lane id=":5_0_0" index="0" speed="5.53" length="11.24" shape="153.56,165.73 152.05,162.19 150.69,161.06 149.48,162.35 148.42,166.05"/>
    </edge>
    <edge id=":5_1" function="internal">
        <lane id=":5_1_0" index="0" speed="7.71" length="17.75" shape="153.56,165.73 151.17,160.67 148.25,158.27 144.80,158.53 140.83,161.43"/>
    </edge>
    <edge id=":5_2" function="internal">
        <lane id=":5_2_0" index="0" speed="12.13" length="21.93" shape="153.56,165.73 151.51,158.35 150.75,152.38 151.28,147.81 153.10,144.64"/>
    </edge>
    <edge id=":5_3" function="internal">
        <lane id=":5_3_0" index="0" speed="3.65" length="4.67" shape="153.56,165.73 153.94,164.34 154.57,163.71 155.45,163.83 156.59,164.72"/>
    </edge>
    <edge id=":5_4" function="internal">
        <lane id=":5_4_0" index="0" speed="11.16" length="18.45" shape="155.36,146.90 154.11,149.34 153.90,153.12 154.73,158.25 156.59,164.72"/>
    </edge>
    <edge id=":5_5" function="internal">
        <lane id=":5_5_0" index="0" speed="18.73" length="20.54" shape="155.36,146.90 152.92,150.70 150.93,155.97 149.42,161.49 148.42,166.05"/>
    </edge>
    <edge id=":5_6" function="internal">
        <lane id=":5_6_0" index="0" speed="60.00" length="20.55" shape="155.36,146.90 140.83,161.43"/>
    </edge>
    <edge id=":5_7" function="internal">
        <lane id=":5_7_0" index="0" speed="3.65" length="1.44" shape="155.36,146.90 153.94,147.19"/>
    </edge>
    <edge id=":5_16" function="internal">
        <lane id=":5_16_0" index="0" speed="3.65" length="3.23" shape="153.94,147.19 153.10,146.90 152.81,146.06 153.10,144.64"/>
    </edge>
    <edge id=":5_8" function="internal">
        <lane id=":5_8_0" index="0" speed="60.00" length="20.55" shape="138.57,159.17 153.10,144.64"/>
    </edge>
    <edge id=":5_9" function="internal">
        <lane id=":5_9_0" index="0" speed="9.05" length="4.81" shape="138.57,159.17 142.43,156.31"/>
    </edge>
    <edge id=":5_10" function="internal">
        <lane id=":5_10_0" index="0" speed="6.58" length="2.33" shape="138.57,159.17 140.66,158.14"/>
    </edge>
    <edge id=":5_11" function="internal">
        <lane id=":5_11_0" index="0" speed="3.65" length="1.44" shape="138.57,159.17 139.98,158.89"/>
    </edge>
    <edge id=":5_17" function="internal">
        <lane id=":5_17_0" index="0" speed="9.05" length="20.15" shape="142.43,156.31 144.24,154.97 149.14,154.49 153.26,157.74 156.59,164.72"/>
    </edge>
    <edge id=":5_18" function="internal">
        <lane id=":5_18_0" index="0" speed="6.58" length="13.89" shape="140.66,158.14 142.28,157.33 145.76,158.39 148.10,161.55 148.42,166.05"/>
    </edge>
    <edge id=":5_19" function="internal">
        <lane id=":5_19_0" index="0" speed="3.65" length="3.23" shape="139.98,158.89 140.83,159.17 141.11,160.02 140.83,161.43"/>
    </edge>
    <edge id=":5_12" function="internal">
        <lane id=":5_12_0" index="0" speed="5.67" length="11.56" shape="145.28,165.42 145.80,161.22 145.23,159.15 143.57,159.22 140.83,161.43"/>
    </edge>
    <edge id=":5_13" function="internal">
        <lane id=":5_13_0" index="0" speed="19.53" length="22.36" shape="145.28,165.42 146.42,160.61 148.23,154.52 150.52,148.69 153.10,144.64"/>
    </edge>
    <edge id=":5_14" function="internal">
        <lane id=":5_14_0" index="0" speed="6.35" length="15.41" shape="145.28,165.42 147.29,161.87 150.65,160.52 154.16,161.44 156.59,164.72"/>
    </edge>
    <edge id=":5_15" function="internal">
        <lane id=":5_15_0" index="0" speed="3.65" length="4.67" shape="145.28,165.42 146.30,164.40 147.17,164.17 147.87,164.72 148.42,166.05"/>
    </edge>
    <edge id=":6_0" function="internal">
        <lane id=":6_0_0" index="0" speed="11.22" length="28.93" shape="301.60,576.28 301.04,587.36 299.36,595.27 296.55,600.02 292.63,601.60"/>
    </edge>
    <edge id=":6_1" function="internal">
        <lane id=":6_1_0" index="0" speed="6.04" length="14.90" shape="301.60,576.28 300.21,579.87 297.00,581.51 293.44,580.97 290.98,578.00"/>
    </edge>
    <edge id=":6_2" function="internal">
        <lane id=":6_2_0" index="0" speed="3.65" length="4.67" shape="301.60,576.28 300.80,577.48 300.00,577.88 299.20,577.48 298.40,576.28"/>
    </edge>
    <edge id=":6_3" function="internal">
        <lane id=":6_3_0" index="0" speed="5.98" length="14.58" shape="294.02,576.99 295.93,581.88 297.30,583.39 298.13,581.52 298.40,576.28"/>
    </edge>
    <edge id=":6_4" function="internal">
        <lane id=":6_4_0" index="0" speed="9.92" length="27.85" shape="294.02,576.99 296.75,586.32 297.94,594.17 296.83,599.58 292.63,601.60"/>
    </edge>
    <edge id=":6_5" function="internal">
        <lane id=":6_5_0" index="0" speed="3.65" length="4.67" shape="294.02,576.99 293.64,578.38 293.01,579.02 292.12,578.89 290.98,578.00"/>
    </edge>
    <edge id=":7_0" function="internal">
        <lane id=":7_0_0" index="0" speed="6.08" length="7.76" shape="301.60,898.50 301.21,899.86 300.02,900.82 298.06,901.41 295.30,901.60"/>
    </edge>
    <edge id=":7_1" function="internal">
        <lane id=":7_1_0" index="0" speed="3.65" length="4.67" shape="301.60,898.50 300.80,899.70 300.00,900.10 299.20,899.70 298.40,898.50"/>
    </edge>
    <edge id=":8_0" function="internal">
        <lane id=":8_0_0" index="0" speed="9.81" length="21.87" shape="4.76,901.60 1.98,900.39 -0.01,896.75 -1.20,890.68 -1.60,882.18"/>
    </edge>
    <edge id=":8_1" function="internal">
        <lane id=":8_1_0" index="0" speed="9.04" length="21.18" shape="4.76,901.60 2.06,900.41 0.68,896.83 0.61,890.87 1.86,882.53"/>
    </edge>
    <edge id=":8_2" function="internal">
        <lane id=":8_2_0" index="0" speed="4.85" length="9.33" shape="5.00,883.15 3.66,885.06 1.43,885.42 -0.67,884.41 -1.60,882.18"/>
    </edge>
    <edge id=":8_3" function="internal">
        <lane id=":8_3_0" index="0" speed="3.65" length="4.67" shape="5.00,883.15 3.98,884.17 3.12,884.41 2.41,883.86 1.86,882.53"/>
    </edge>

    <edge id="1-2" from="1" to="2" priority="80">
        <lane id="1-2_0" index="0" speed="80.00" length="285.07" shape="1.60,3.20 1.60,288.27"/>
    </edge>
    <edge id="1-4" from="1" to="4" priority="80">
        <lane id="1-4_0" index="0" speed="80.00" length="285.07" shape="3.20,-1.60 288.27,-1.60"/>
    </edge>
    <edge id="2-1" from="2" to="1" priority="80">
        <lane id="2-1_0" index="0" speed="80.00" length="285.07" shape="-1.60,288.27 -1.60,3.20"/>
    </edge>
    <edge id="2-3" from="2" to="3" priority="80">
        <lane id="2-3_0" index="0" speed="80.00" length="285.07" shape="11.73,298.40 296.80,298.40"/>
    </edge>
    <edge id="2-5" from="2" to="5" priority="100">
        <lane id="2-5_0" index="0" speed="60.00" length="185.84" shape="7.16,290.58 138.57,159.17"/>
    </edge>
    <edge id="3-2" from="3" to="2" priority="80">
        <lane id="3-2_0" index="0" speed="80.00" length="285.07" shape="296.80,301.60 11.73,301.60"/>
    </edge>
    <edge id="3-6" from="3" to="6" priority="80">
        <lane id="3-6_0" index="0" speed="80.00" length="273.08" shape="301.60,303.20 301.60,576.28"/>
    </edge>
    <edge id="4-1" from="4" to="1" priority="80">
        <lane id="4-1_0" index="0" speed="80.00" length="285.07" shape="288.27,1.60 3.20,1.60"/>
    </edge>
    <edge id="4-5" from="4" to="5" priority="100">
        <lane id="4-5_0" index="0" speed="60.00" length="194.43" shape="292.84,9.42 155.36,146.90"/>
    </edge>
    <edge id="4-7" from="4" to="7" priority="80">
        <lane id="4-7_0" index="0" speed="80.00" length="886.77" shape="301.60,11.73 301.60,898.50"/>
    </edge>
    <edge id="5-2" from="5" to="2" priority="100">
        <lane id="5-2_0" index="0" speed="60.00" length="185.84" shape="140.83,161.43 9.42,292.84"/>
    </edge>
    <edge id="5-4" from="5" to="4" priority="100">
        <lane id="5-4_0" index="0" speed="60.00" length="194.43" shape="153.10,144.64 290.58,7.16"/>
    </edge>
    <edge id="5-6" from="5" to="6" priority="100">
        <lane id="5-6_0" index="0" speed="60.00" length="434.57" shape="156.59,164.72 294.02,576.99"/>
    </edge>
    <edge id="5-8" from="5" to="8" priority="100">
        <lane id="5-8_0" index="0" speed="60.00" length="731.30" shape="148.42,166.05 5.00,883.15"/>
    </edge>
    <edge id="6-3" from="6" to="3" priority="80">
        <lane id="6-3_0" index="0" speed="80.00" length="273.08" shape="298.40,576.28 298.40,303.20"/>
    </edge>
    <edge id="6-5" from="6" to="5" priority="100">
        <lane id="6-5_0" index="0" speed="60.00" length="434.57" shape="290.98,578.00 153.56,165.73"/>
    </edge>
    <edge id="6-9" from="6" to="9" priority="80">
        <lane id="6-9_0" index="0" speed="80.00" length="291.13" shape="292.63,601.60 1.50,601.60"/>
    </edge>
    <edge id="7-4" from="7" to="4" priority="80">
        <lane id="7-4_0" index="0" speed="80.00" length="886.77" shape="298.40,898.50 298.40,11.73"/>
    </edge>
    <edge id="7-8" from="7" to="8" priority="80">
        <lane id="7-8_0" index="0" speed="80.00" length="290.54" shape="295.30,901.60 4.76,901.60"/>
    </edge>
    <edge id="8-5" from="8" to="5" priority="100">
        <lane id="8-5_0" index="0" speed="60.00" length="731.30" shape="1.86,882.53 145.28,165.42"/>
    </edge>
    <edge id="8-9" from="8" to="9" priority="80">
        <lane id="8-9_0" index="0" speed="80.00" length="277.48" shape="-1.60,882.18 -1.60,604.70"/>
    </edge>

    <junction id="1" type="priority" x="0.00" y="0.00" incLanes="2-1_0 4-1_0" intLanes=":1_0_0 :1_1_0" shape="-3.20,3.20 3.20,3.20 3.20,-3.20 -0.36,-2.49 -1.60,-1.60 -2.49,-0.36 -3.02,1.24">
        <request index="0" response="00" foes="00" cont="0"/>
        <request index="1" response="00" foes="00" cont="0"/>
    </junction>
    <junction id="2" type="priority" x="0.00" y="300.00" incLanes="3-2_0 5-2_0 1-2_0" intLanes=":2_0_0 :2_1_0 :2_2_0 :2_3_0 :2_4_0 :2_5_0 :2_6_0 :2_7_0 :2_8_0" shape="11.73,303.20 11.73,296.80 9.82,296.49 9.43,296.09 9.43,295.54 9.80,294.84 10.55,293.97 6.03,289.45 4.46,290.57 3.91,290.57 3.51,290.18 3.28,289.42 3.20,288.27 -3.20,288.27 -2.79,292.84 -1.54,296.57 0.53,299.47 3.43,301.54 7.16,302.79">
        <request index="0" response="000010000" foes="100010000" cont="0"/>
        <request index="1" response="011010000" foes="011110000" cont="0"/>
        <request index="2" response="010001000" foes="010001000" cont="0"/>
        <request index="3" response="000000000" foes="010000100" cont="0"/>
        <request index="4" response="000000000" foes="110000011" cont="0"/>
        <request index="5" response="001000010" foes="001000010" cont="0"/>
        <request index="6" response="000000000" foes="000100010" cont="0"/>
        <request index="7" response="000011000" foes="000011110" cont="0"/>
        <request index="8" response="000010001" foes="000010001" cont="0"/>
    </junction>
    <junction id="3" type="priority" x="300.00" y="300.00" incLanes="6-3_0 2-3_0" intLanes=":3_0_0 :3_1_0" shape="296.80,303.20 303.20,303.20 302.49,299.64 301.60,298.40 300.36,297.51 298.76,296.98 296.80,296.80">
        <request index="0" response="00" foes="00" cont="0"/>
        <request index="1" response="00" foes="00" cont="0"/>
    </junction>
    <junction id="4" type="priority" x="300.00" y="0.00" incLanes="7-4_0 1-4_0 5-4_0" intLanes=":4_0_0 :4_1_0 :4_2_0 :4_3_0 :4_4_0 :4_5_0 :4_6_0 :4_7_0 :4_8_0" shape="296.80,11.73 303.20,11.73 302.79,7.16 301.54,3.43 299.47,0.53 296.57,-1.54 292.84,-2.79 288.27,-3.20 288.27,3.20 290.18,3.51 290.57,3.91 290.57,4.46 290.20,5.16 289.45,6.03 293.97,10.55 295.54,9.43 296.09,9.43 296.49,9.82 296.72,10.58">
        <request index="0" response="000000000" foes="100010000" cont="0"/>
        <request index="1" response="011000000" foes="011110000" cont="0"/>
        <request index="2" response="010001000" foes="010001000" cont="0"/>
        <request index="3" response="010000000" foes="010000100" cont="0"/>
        <request index="4" response="010000011" foes="110000011" cont="0"/>
        <request index="5" response="001000010" foes="001000010" cont="0"/>
        <request index="6" response="000000000" foes="000100010" cont="0"/>
        <request index="7" response="000000000" foes="000011110" cont="0"/>
        <request index="8" response="000010001" foes="000010001" cont="0"/>
    </junction>
    <junction id="5" type="priority" x="150.00" y="150.00" incLanes="6-5_0 4-5_0 2-5_0 8-5_0" intLanes=":5_0_0 :5_1_0 :5_2_0 :5_3_0 :5_4_0 :5_5_0 :5_6_0 :5_16_0 :5_8_0 :5_17_0 :5_18_0 :5_19_0 :5_12_0 :5_13_0 :5_14_0 :5_15_0" shape="152.04,166.24 158.11,164.21 156.83,160.06 155.95,156.48 155.48,153.49 155.41,151.09 155.75,149.27 156.49,148.04 151.96,143.51 137.44,158.04 141.96,162.56 143.41,161.59 143.81,161.79 144.00,162.44 143.96,163.55 143.71,165.11 149.99,166.37">
        <request index="0"  response="0000010000100000" foes="1000010000100000" cont="0"/>
        <request index="1"  response="0111010001100000" foes="0111110001100000" cont="0"/>
        <request index="2"  response="0110001101100000" foes="0110001111100000" cont="0"/>
        <request index="3"  response="0100001000010000" foes="0100001000010000" cont="0"/>
        <request index="4"  response="0000000000000000" foes="0100001000001000" cont="0"/>
        <request index="5"  response="0000000000000000" foes="1100011000000111" cont="0"/>
        <request index="6"  response="0000000000000000" foes="0011111000000110" cont="0"/>
        <request index="7"  response="0010000100000100" foes="0010000100000100" cont="1"/>
        <request index="8"  response="0000000000000000" foes="0010000010000100" cont="0"/>
        <request index="9"  response="0000000001110000" foes="0110000001111100" cont="1"/>
        <request index="10" response="0000000001100000" foes="1110000001100011" cont="1"/>
        <request index="11" response="0001000001000010" foes="0001000001000010" cont="1"/>
        <request index="12" response="0000000001000000" foes="0000100001000010" cont="0"/>
        <request index="13" response="0000011101000000" foes="0000011111000110" cont="0"/>
        <request index="14" response="0000011000110000" foes="0000011000111110" cont="0"/>
        <request index="15" response="0000010000100001" foes="0000010000100001" cont="0"/>
    </junction>
    <junction id="6" type="priority" x="300.00" y="600.00" incLanes="3-6_0 5-6_0" intLanes=":6_0_0 :6_1_0 :6_2_0 :6_3_0 :6_4_0 :6_5_0" shape="303.20,576.28 296.80,576.28 295.54,576.49 289.46,578.51 291.25,584.08 292.72,589.17 293.73,593.55 294.14,596.97 293.81,599.20 292.63,600.00 292.63,603.20 295.86,602.45 298.50,600.21 300.56,596.47 302.03,591.24 302.91,584.51">
        <request index="0" response="010000" foes="010000" cont="0"/>
        <request index="1" response="010000" foes="110000" cont="0"/>
        <request index="2" response="001000" foes="001000" cont="0"/>
        <request index="3" response="000000" foes="000100" cont="0"/>
        <request index="4" response="000000" foes="000011" cont="0"/>
        <request index="5" response="000010" foes="000010" cont="0"/>
    </junction>
    <junction id="7" type="priority" x="300.00" y="900.00" incLanes="4-7_0" intLanes=":7_0_0 :7_1_0" shape="303.20,898.50 296.80,898.50 296.63,899.33 296.42,899.62 296.13,899.83 295.76,899.96 295.30,900.00 295.30,903.20 297.71,903.07 299.69,902.68 301.23,902.03 302.32,901.11 302.98,899.94">
        <request index="0" response="00" foes="00" cont="0"/>
        <request index="1" response="00" foes="00" cont="0"/>
    </junction>
    <junction id="8" type="priority" x="0.00" y="900.00" incLanes="7-8_0 5-8_0" intLanes=":8_0_0 :8_1_0 :8_2_0 :8_3_0" shape="4.76,903.20 4.76,900.00 4.30,898.16 4.47,895.87 4.90,892.65 5.60,888.52 6.57,883.47 0.29,882.21 0.00,882.18 -3.20,882.18 -2.98,888.60 -2.32,893.86 -1.21,897.95 0.34,900.86 2.33,902.62">
        <request index="0" response="0100" foes="0100" cont="0"/>
        <request index="1" response="0100" foes="1100" cont="0"/>
        <request index="2" response="0000" foes="0011" cont="0"/>
        <request index="3" response="0010" foes="0010" cont="0"/>
    </junction>
    <junction id="9" type="dead_end" x="0.00" y="600.00" incLanes="8-9_0 6-9_0" intLanes="" shape="-3.20,604.70 0.00,604.70 0.17,603.87 0.37,603.58 0.67,603.37 1.04,603.24 1.50,603.20 1.50,600.00 -1.11,600.52 -2.02,601.17 -2.68,602.09 -3.07,603.26"/>

    <junction id=":5_16_0" type="internal" x="153.94" y="147.19" incLanes=":5_7_0 2-5_0 6-5_0 8-5_0" intLanes=":5_2_0 :5_8_0 :5_13_0"/>
    <junction id=":5_17_0" type="internal" x="142.43" y="156.31" incLanes=":5_9_0 4-5_0" intLanes=":5_2_0 :5_3_0 :5_4_0 :5_5_0 :5_6_0 :5_13_0 :5_14_0"/>
    <junction id=":5_18_0" type="internal" x="140.66" y="158.14" incLanes=":5_10_0 4-5_0" intLanes=":5_0_0 :5_1_0 :5_5_0 :5_6_0 :5_13_0 :5_14_0 :5_15_0"/>
    <junction id=":5_19_0" type="internal" x="139.98" y="158.89" incLanes=":5_11_0 4-5_0 6-5_0 8-5_0" intLanes=":5_1_0 :5_6_0 :5_12_0"/>

    <connection from="1-2" to="2-5" fromLane="0" toLane="0" via=":2_6_0" dir="r" state="M"/>
    <connection from="1-2" to="2-3" fromLane="0" toLane="0" via=":2_7_0" dir="R" state="m"/>
    <connection from="1-2" to="2-1" fromLane="0" toLane="0" via=":2_8_0" dir="t" state="m"/>
    <connection from="1-4" to="4-7" fromLane="0" toLane="0" via=":4_3_0" dir="L" state="m"/>
    <connection from="1-4" to="4-5" fromLane="0" toLane="0" via=":4_4_0" dir="l" state="m"/>
    <connection from="1-4" to="4-1" fromLane="0" toLane="0" via=":4_5_0" dir="t" state="m"/>
    <connection from="2-1" to="1-4" fromLane="0" toLane="0" via=":1_0_0" dir="l" state="M"/>
    <connection from="2-3" to="3-6" fromLane="0" toLane="0" via=":3_1_0" dir="l" state="M"/>
    <connection from="2-5" to="5-4" fromLane="0" toLane="0" via=":5_8_0" dir="s" state="M"/>
    <connection from="2-5" to="5-6" fromLane="0" toLane="0" via=":5_9_0" dir="l" state="m"/>
    <connection from="2-5" to="5-8" fromLane="0" toLane="0" via=":5_10_0" dir="l" state="m"/>
    <connection from="2-5" to="5-2" fromLane="0" toLane="0" via=":5_11_0" dir="t" state="m"/>
    <connection from="3-2" to="2-1" fromLane="0" toLane="0" via=":2_0_0" dir="L" state="m"/>
    <connection from="3-2" to="2-5" fromLane="0" toLane="0" via=":2_1_0" dir="l" state="m"/>
    <connection from="3-2" to="2-3" fromLane="0" toLane="0" via=":2_2_0" dir="t" state="m"/>
    <connection from="3-6" to="6-9" fromLane="0" toLane="0" via=":6_0_0" dir="L" state="m"/>
    <connection from="3-6" to="6-5" fromLane="0" toLane="0" via=":6_1_0" dir="l" state="m"/>
    <connection from="3-6" to="6-3" fromLane="0" toLane="0" via=":6_2_0" dir="t" state="m"/>
    <connection from="4-1" to="1-2" fromLane="0" toLane="0" via=":1_1_0" dir="r" state="M"/>
    <connection from="4-5" to="5-6" fromLane="0" toLane="0" via=":5_4_0" dir="r" state="M"/>
    <connection from="4-5" to="5-8" fromLane="0" toLane="0" via=":5_5_0" dir="R" state="M"/>
    <connection from="4-5" to="5-2" fromLane="0" toLane="0" via=":5_6_0" dir="s" state="M"/>
    <connection from="4-5" to="5-4" fromLane="0" toLane="0" via=":5_7_0" dir="t" state="m"/>
    <connection from="4-7" to="7-8" fromLane="0" toLane="0" via=":7_0_0" dir="l" state="M"/>
    <connection from="4-7" to="7-4" fromLane="0" toLane="0" via=":7_1_0" dir="t" state="M"/>
    <connection from="5-2" to="2-3" fromLane="0" toLane="0" via=":2_3_0" dir="r" state="M"/>
    <connection from="5-2" to="2-1" fromLane="0" toLane="0" via=":2_4_0" dir="l" state="M"/>
    <connection from="5-2" to="2-5" fromLane="0" toLane="0" via=":2_5_0" dir="t" state="m"/>
    <connection from="5-4" to="4-1" fromLane="0" toLane="0" via=":4_6_0" dir="r" state="M"/>
    <connection from="5-4" to="4-7" fromLane="0" toLane="0" via=":4_7_0" dir="l" state="M"/>
    <connection from="5-4" to="4-5" fromLane="0" toLane="0" via=":4_8_0" dir="t" state="m"/>
    <connection from="5-6" to="6-3" fromLane="0" toLane="0" via=":6_3_0" dir="r" state="M"/>
    <connection from="5-6" to="6-9" fromLane="0" toLane="0" via=":6_4_0" dir="l" state="M"/>
    <connection from="5-6" to="6-5" fromLane="0" toLane="0" via=":6_5_0" dir="t" state="m"/>
    <connection from="5-8" to="8-9" fromLane="0" toLane="0" via=":8_2_0" dir="l" state="M"/>
    <connection from="5-8" to="8-5" fromLane="0" toLane="0" via=":8_3_0" dir="t" state="m"/>
    <connection from="6-3" to="3-2" fromLane="0" toLane="0" via=":3_0_0" dir="r" state="M"/>
    <connection from="6-5" to="5-8" fromLane="0" toLane="0" via=":5_0_0" dir="r" state="m"/>
    <connection from="6-5" to="5-2" fromLane="0" toLane="0" via=":5_1_0" dir="r" state="m"/>
    <connection from="6-5" to="5-4" fromLane="0" toLane="0" via=":5_2_0" dir="l" state="m"/>
    <connection from="6-5" to="5-6" fromLane="0" toLane="0" via=":5_3_0" dir="t" state="m"/>
    <connection from="7-4" to="4-5" fromLane="0" toLane="0" via=":4_0_0" dir="r" state="M"/>
    <connection from="7-4" to="4-1" fromLane="0" toLane="0" via=":4_1_0" dir="R" state="m"/>
    <connection from="7-4" to="4-7" fromLane="0" toLane="0" via=":4_2_0" dir="t" state="m"/>
    <connection from="7-8" to="8-9" fromLane="0" toLane="0" via=":8_0_0" dir="L" state="m"/>
    <connection from="7-8" to="8-5" fromLane="0" toLane="0" via=":8_1_0" dir="l" state="m"/>
    <connection from="8-5" to="5-2" fromLane="0" toLane="0" via=":5_12_0" dir="r" state="m"/>
    <connection from="8-5" to="5-4" fromLane="0" toLane="0" via=":5_13_0" dir="s" state="m"/>
    <connection from="8-5" to="5-6" fromLane="0" toLane="0" via=":5_14_0" dir="l" state="m"/>
    <connection from="8-5" to="5-8" fromLane="0" toLane="0" via=":5_15_0" dir="t" state="m"/>

    <connection from=":1_0" to="1-4" fromLane="0" toLane="0" dir="l" state="M"/>
    <connection from=":1_1" to="1-2" fromLane="0" toLane="0" dir="r" state="M"/>
    <connection from=":2_0" to="2-1" fromLane="0" toLane="0" dir="L" state="M"/>
    <connection from=":2_1" to="2-5" fromLane="0" toLane="0" dir="l" state="M"/>
    <connection from=":2_2" to="2-3" fromLane="0" toLane="0" dir="t" state="M"/>
    <connection from=":2_3" to="2-3" fromLane="0" toLane="0" dir="r" state="M"/>
    <connection from=":2_4" to="2-1" fromLane="0" toLane="0" dir="l" state="M"/>
    <connection from=":2_5" to="2-5" fromLane="0" toLane="0" dir="t" state="M"/>
    <connection from=":2_6" to="2-5" fromLane="0" toLane="0" dir="r" state="M"/>
    <connection from=":2_7" to="2-3" fromLane="0" toLane="0" dir="R" state="M"/>
    <connection from=":2_8" to="2-1" fromLane="0" toLane="0" dir="t" state="M"/>
    <connection from=":3_0" to="3-2" fromLane="0" toLane="0" dir="r" state="M"/>
    <connection from=":3_1" to="3-6" fromLane="0" toLane="0" dir="l" state="M"/>
    <connection from=":4_0" to="4-5" fromLane="0" toLane="0" dir="r" state="M"/>
    <connection from=":4_1" to="4-1" fromLane="0" toLane="0" dir="R" state="M"/>
    <connection from=":4_2" to="4-7" fromLane="0" toLane="0" dir="t" state="M"/>
    <connection from=":4_3" to="4-7" fromLane="0" toLane="0" dir="L" state="M"/>
    <connection from=":4_4" to="4-5" fromLane="0" toLane="0" dir="l" state="M"/>
    <connection from=":4_5" to="4-1" fromLane="0" toLane="0" dir="t" state="M"/>
    <connection from=":4_6" to="4-1" fromLane="0" toLane="0" dir="r" state="M"/>
    <connection from=":4_7" to="4-7" fromLane="0" toLane="0" dir="l" state="M"/>
    <connection from=":4_8" to="4-5" fromLane="0" toLane="0" dir="t" state="M"/>
    <connection from=":5_0" to="5-8" fromLane="0" toLane="0" dir="r" state="M"/>
    <connection from=":5_1" to="5-2" fromLane="0" toLane="0" dir="r" state="M"/>
    <connection from=":5_2" to="5-4" fromLane="0" toLane="0" dir="l" state="M"/>
    <connection from=":5_3" to="5-6" fromLane="0" toLane="0" dir="t" state="M"/>
    <connection from=":5_4" to="5-6" fromLane="0" toLane="0" dir="r" state="M"/>
    <connection from=":5_5" to="5-8" fromLane="0" toLane="0" dir="R" state="M"/>
    <connection from=":5_6" to="5-2" fromLane="0" toLane="0" dir="s" state="M"/>
    <connection from=":5_7" to="5-4" fromLane="0" toLane="0" via=":5_16_0" dir="t" state="m"/>
    <connection from=":5_16" to="5-4" fromLane="0" toLane="0" dir="t" state="M"/>
    <connection from=":5_8" to="5-4" fromLane="0" toLane="0" dir="s" state="M"/>
    <connection from=":5_9" to="5-6" fromLane="0" toLane="0" via=":5_17_0" dir="l" state="m"/>
    <connection from=":5_17" to="5-6" fromLane="0" toLane="0" dir="l" state="M"/>
    <connection from=":5_10" to="5-8" fromLane="0" toLane="0" via=":5_18_0" dir="l" state="m"/>
    <connection from=":5_18" to="5-8" fromLane="0" toLane="0" dir="l" state="M"/>
    <connection from=":5_11" to="5-2" fromLane="0" toLane="0" via=":5_19_0" dir="t" state="m"/>
    <connection from=":5_19" to="5-2" fromLane="0" toLane="0" dir="t" state="M"/>
    <connection from=":5_12" to="5-2" fromLane="0" toLane="0" dir="r" state="M"/>
    <connection from=":5_13" to="5-4" fromLane="0" toLane="0" dir="s" state="M"/>
    <connection from=":5_14" to="5-6" fromLane="0" toLane="0" dir="l" state="M"/>