<data xmlns:xsi="http://www.w3.org/2001/XMLSchema-instance" xsi:noNamespaceSchemaLocation="http://sumo.dlr.de/xsd/datamode_file.xsd">
    <interval id="car" begin="0" end="1:0:0">
      <tazRelation count="50" from="1" to="2"/>
      <tazRelation count="50" from="1" to="3"/>
      <tazRelation count="250" from="1" to="4"/>
      <tazRelation count="100" from="1" to="5"/>
      <tazRelation count="150" from="1" to="6"/>
      <tazRelation count="250" from="1" to="7"/>
      <tazRelation count="400" from="1" to="8"/>
      <tazRelation count="250" from="1" to="9"/>
      <tazRelation count="650" from="1" to="10"/>
      <tazRelation count="250" from="1" to="11"/>
      <tazRelation count="100" from="1" to="12"/>
      <tazRelation count="250" from="1" to="13"/>
      <tazRelation count="150" from="1" to="14"/>
      <tazRelation count="250" from="1" to="15"/>
      <tazRelation count="250" from="1" to="16"/>
      <tazRelation count="200" from="1" to="17"/>
      <tazRelation count="50" from="1" to="18"/>
      <tazRelation count="150" from="1" to="19"/>
      <tazRelation count="150" from="1" to="20"/>
      <tazRelation count="50" from="1" to="21"/>
      <tazRelation count="200" from="1" to="22"/>
      <tazRelation count="150" from="1" to="23"/>
      <tazRelation count="50" from="1" to="24"/>
      <tazRelation count="50" from="2" to="1"/>
      <tazRelation count="50" from="2" to="3"/>
      <tazRelation count="100" from="2" to="4"/>
      <tazRelation count="50" from="2" to="5"/>
      <tazRelation count="200" from="2" to="6"/>
      <tazRelation count="100" from="2" to="7"/>
      <tazRelation count="200" from="2" to="8"/>
      <tazRelation count="100" from="2" to="9"/>
      <tazRelation count="300" from="2" to="10"/>
      <tazRelation count="100" from="2" to="11"/>
      <tazRelation count="50" from="2" to="12"/>
      <tazRelation count="150" from="2" to="13"/>
      <tazRelation count="50" from="2" to="14"/>
      <tazRelation count="50" from="2" to="15"/>
      <tazRelation count="200" from="2" to="16"/>
      <tazRelation count="100" from="2" to="17"/>
      <tazRelation count="50" from="2" to="19"/>
      <tazRelation count="50" from="2" to="20"/>
      <tazRelation count="50" from="2" to="22"/>
      <tazRelation count="50" from="3" to="1"/>
      <tazRelation count="50" from="3" to="2"/>
      <tazRelation count="100" from="3" to="4"/>
      <tazRelation count="50" from="3" to="5"/>
      <tazRelation count="150" from="3" to="6"/>
      <tazRelation count="50" from="3" to="7"/>
      <tazRelation count="100" from="3" to="8"/>
      <tazRelation count="50" from="3" to="9"/>
      <tazRelation count="150" from="3" to="10"/>
      <tazRelation count="150" from="3" to="11"/>
      <tazRelation count="100" from="3" to="12"/>
      <tazRelation count="50" from="3" to="13"/>
      <tazRelation count="50" from="3" to="14"/>
      <tazRelation count="50" from="3" to="15"/>
      <tazRelation count="100" from="3" to="16"/>
      <tazRelation count="50" from="3" to="17"/>
      <tazRelation count="50" from="3" to="22"/>
      <tazRelation count="50" from="3" to="23"/>
      <tazRelation count="250" from="4" to="1"/>
      <tazRelation count="100" from="4" to="2"/>
      <tazRelation count="100" from="4" to="3"/>
      <tazRelation count="250" from="4" to="5"/>
      <tazRelation count="200" from="4" to="6"/>
      <tazRelation count="200" from="4" to="7"/>
      <tazRelation count="350" from="4" to="8"/>
      <tazRelation count="350" from="4" to="9"/>
      <tazRelation count="600" from="4" to="10"/>
      <tazRelation count="700" from="4" to="11"/>
      <tazRelation count="300" from="4" to="12"/>
      <tazRelation count="300" from="4" to="13"/>
      <tazRelation count="250" from="4" to="14"/>
      <tazRelation count="250" from="4" to="15"/>
      <tazRelation count="400" from="4" to="16"/>
      <tazRelation count="250" from="4" to="17"/>
      <tazRelation count="50" from="4" to="18"/>
      <tazRelation count="100" from="4" to="19"/>
      <tazRelation count="150" from="4" to="20"/>
      <tazRelation count="100" from="4" to="21"/>
      <tazRelation count="200" from="4" to="22"/>
      <tazRelation count="250" from="4" to="23"/>
      <tazRelation count="100" from="4" to="24"/>
      <tazRelation count="100" from="5" to="1"/>
      <tazRelation count="50" from="5" to="2"/>
      <tazRelation count="50" from="5" to="3"/>
      <tazRelation count="250" from="5" to="4"/>
      <tazRelation count="100" from="5" to="6"/>
      <tazRelation count="100" from="5" to="7"/>
      <tazRelation count="250" from="5" to="8"/>
      <tazRelation count="400" from="5" to="9"/>
      <tazRelation count="500" from="5" to="10"/>
      <tazRelation count="250" from="5" to="11"/>
      <tazRelation count="100" from="5" to="12"/>
      <tazRelation count="100" from="5" to="13"/>
      <tazRelation count="50" from="5" to="14"/>
      <tazRelation count="100" from="5" to="15"/>
      <tazRelation count="250" from="5" to="16"/>
      <tazRelation count="100" from="5" to="17"/>
      <tazRelation count="50" from="5" to="19"/>
      <tazRelation count="50" from="5" to="20"/>
      <tazRelation count="50" from="5" to="21"/>
      <tazRelation count="100" from="5" to="22"/>
      <tazRelation count="50" from="5" to="23"/>
      <tazRelation count="150" from="6" to="1"/>
      <tazRelation count="200" from="6" to="2"/>
      <tazRelation count="150" from="6" to="3"/>
      <tazRelation count="200" from="6" to="4"/>
      <tazRelation count="100" from="6" to="5"/>
      <tazRelation count="200" from="6" to="7"/>
      <tazRelation count="400" from="6" to="8"/>
      <tazRelation count="200" from="6" to="9"/>
      <tazRelation count="400" from="6" to="10"/>
      <tazRelation count="200" from="6" to="11"/>
      <tazRelation count="100" from="6" to="12"/>
      <tazRelation count="100" from="6" to="13"/>
      <tazRelation count="50" from="6" to="14"/>
      <tazRelation count="100" from="6" to="15"/>
      <tazRelation count="450" from="6" to="16"/>
      <tazRelation count="250" from="6" to="17"/>
      <tazRelation count="50" from="6" to="18"/>
      <tazRelation count="100" from="6" to="19"/>
      <tazRelation count="150" from="6" to="20"/>
      <tazRelation count="50" from="6" to="21"/>
      <tazRelation count="100" from="6" to="22"/>
      <tazRelation count="50" from="6" to="23"/>
      <tazRelation count="50" from="6" to="24"/>
      <tazRelation count="250" from="7" to="1"/>
      <tazRelation count="100" from="7" to="2"/>
      <tazRelation count="50" from="7" to="3"/>
      <tazRelation count="200" from="7" to="4"/>
      <tazRelation count="100" from="7" to="5"/>
      <tazRelation count="200" from="7" to="6"/>
      <tazRelation count="500" from="7" to="8"/>
      <tazRelation count="300" from="7" to="9"/>
      <tazRelation count="950" from="7" to="10"/>
      <tazRelation count="250" from="7" to="11"/>
      <tazRelation count="350" from="7" to="12"/>
      <tazRelation count="200" from="7" to="13"/>
      <tazRelation count="100" from="7" to="14"/>
      <tazRelation count="250" from="7" to="15"/>
      <tazRelation count="700" from="7" to="16"/>
      <tazRelation count="500" from="7" to="17"/>
      <tazRelation count="100" from="7" to="18"/>
      <tazRelation count="200" from="7" to="19"/>
      <tazRelation count="250" from="7" to="20"/>
      <tazRelation count="100" from="7" to="21"/>
      <tazRelation count="250" from="7" to="22"/>
      <tazRelation count="100" from="7" to="23"/>
      <tazRelation count="50" from="7" to="24"/>
      <tazRelation count="400" from="8" to="1"/>
      <tazRelation count="200" from="8" to="2"/>
      <tazRelation count="100" from="8" to="3"/>
      <tazRelation count="350" from="8" to="4"/>
      <tazRelation count="250" from="8" to="5"/>
      <tazRelation count="400" from="8" to="6"/>
      <tazRelation count="500" from="8" to="7"/>
      <tazRelation count="400" from="8" to="9"/>
      <tazRelation count="800" from="8" to="10"/>
      <tazRelation count="400" from="8" to="11"/>
      <tazRelation count="300" from="8" to="12"/>
      <tazRelation count="300" from="8" to="13"/>
      <tazRelation count="200" from="8" to="14"/>
      <tazRelation count="300" from="8" to="15"/>
      <tazRelation count="1100" from="8" to="16"/>
      <tazRelation count="700" from="8" to="17"/>
      <tazRelation count="150" from="8" to="18"/>
      <tazRelation count="350" from="8" to="19"/>
      <tazRelation count="450" from="8" to="20"/>
      <tazRelation count="200" from="8" to="21"/>
      <tazRelation count="250" from="8" to="22"/>
      <tazRelation count="150" from="8" to="23"/>
      <tazRelation count="100" from="8" to="24"/>
      <tazRelation count="250" from="9" to="1"/>
      <tazRelation count="100" from="9" to="2"/>
      <tazRelation count="50" from="9" to="3"/>
      <tazRelation count="350" from="9" to="4"/>
      <tazRelation count="400" from="9" to="5"/>
      <tazRelation count="200" from="9" to="6"/>
      <tazRelation count="300" from="9" to="7"/>
      <tazRelation count="400" from="9" to="8"/>
      <tazRelation count="1400" from="9" to="10"/>
      <tazRelation count="700" from="9" to="11"/>
      <tazRelation count="300" from="9" to="12"/>
      <tazRelation count="300" from="9" to="13"/>
      <tazRelation count="300" from="9" to="14"/>
      <tazRelation count="450" from="9" to="15"/>
      <tazRelation count="700" from="9" to="16"/>
      <tazRelation count="450" from="9" to="17"/>
      <tazRelation count="100" from="9" to="18"/>
      <tazRelation count="200" from="9" to="19"/>
      <tazRelation count="300" from="9" to="20"/>
      <tazRelation count="150" from="9" to="21"/>
      <tazRelation count="350" from="9" to="22"/>
      <tazRelation count="250" from="9" to="23"/>
      <tazRelation count="100" from="9" to="24"/>
      <tazRelation count="650" from="10" to="1"/>
      <tazRelation count="300" from="10" to="2"/>
      <tazRelation count="150" from="10" to="3"/>
      <tazRelation count="600" from="10" to="4"/>
      <tazRelation count="500" from="10" to="5"/>
      <tazRelation count="400" from="10" to="6"/>
      <tazRelation count="950" from="10" to="7"/>
      <tazRelation count="800" from="10" to="8"/>
      <tazRelation count="1400" from="10" to="9"/>
      <tazRelation count="2000" from="10" to="11"/>
      <tazRelation count="1000" from="10" to="12"/>
      <tazRelation count="950" from="10" to="13"/>
      <tazRelation count="1050" from="10" to="14"/>
      <tazRelation count="2000" from="10" to="15"/>
      <tazRelation count="2200" from="10" to="16"/>
      <tazRelation count="1950" from="10" to="17"/>
      <tazRelation count="350" from="10" to="18"/>
      <tazRelation count="900" from="10" to="19"/>
      <tazRelation count="1250" from="10" to="20"/>
      <tazRelation count="600" from="10" to="21"/>
      <tazRelation count="1300" from="10" to="22"/>
      <tazRelation count="900" from="10" to="23"/>
      <tazRelation count="400" from="10" to="24"/>
      <tazRelation count="250" from="11" to="1"/>
      <tazRelation count="100" from="11" to="2"/>
      <tazRelation count="150" from="11" to="3"/>
      <tazRelation count="750" from="11" to="4"/>
      <tazRelation count="250" from="11" to="5"/>
      <tazRelation count="200" from="11" to="6"/>
      <tazRelation count="250" from="11" to="7"/>
      <tazRelation count="400" from="11" to="8"/>
      <tazRelation count="700" from="11" to="9"/>
      <tazRelation count="1950" from="11" to="10"/>
      <tazRelation count="700" from="11" to="12"/>
      <tazRelation count="500" from="11" to="13"/>
      <tazRelation count="800" from="11" to="14"/>
      <tazRelation count="700" from="11" to="15"/>
      <tazRelation count="700" from="11" to="16"/>
      <tazRelation count="500" from="11" to="17"/>
      <tazRelation count="50" from="11" to="18"/>
      <tazRelation count="200" from="11" to="19"/>
      <tazRelation count="300" from="11" to="20"/>
      <tazRelation count="200" from="11" to="21"/>
      <tazRelation count="550" from="11" to="22"/>
      <tazRelation count="650" from="11" to="23"/>
      <tazRelation count="300" from="11" to="24"/>
      <tazRelation count="100" from="12" to="1"/>
      <tazRelation count="50" from="12" to="2"/>
      <tazRelation count="100" from="12" to="3"/>
      <tazRelation count="300" from="12" to="4"/>
      <tazRelation count="100" from="12" to="5"/>
      <tazRelation count="100" from="12" to="6"/>
      <tazRelation count="350" from="12" to="7"/>
      <tazRelation count="300" from="12" to="8"/>
      <tazRelation count="300" from="12" to="9"/>
      <tazRelation count="1000" from="12" to="10"/>
      <tazRelation count="700" from="12" to="11"/>
      <tazRelation count="650" from="12" to="13"/>
      <tazRelation count="350" from="12" to="14"/>
      <tazRelation count="350" from="12" to="15"/>
      <tazRelation count="350" from="12" to="16"/>
      <tazRelation count="300" from="12" to="17"/>
      <tazRelation count="100" from="12" to="18"/>
      <tazRelation count="150" from="12" to="19"/>
      <tazRelation count="200" from="12" to="20"/>
      <tazRelation count="150" from="12" to="21"/>
      <tazRelation count="350" from="12" to="22"/>
      <tazRelation count="350" from="12" to="23"/>
      <tazRelation count="250" from="12" to="24"/>
      <tazRelation count="250" from="13" to="1"/>
      <tazRelation count="150" from="13" to="2"/>
      <tazRelation count="50" from="13" to="3"/>
      <tazRelation count="300" from="13" to="4"/>
      <tazRelation count="100" from="13" to="5"/>
      <tazRelation count="100" from="13" to="6"/>
      <tazRelation count="200" from="13" to="7"/>
      <tazRelation count="300" from="13" to="8"/>
      <tazRelation count="300" from="13" to="9"/>
      <tazRelation count="950" from="13" to="10"/>
      <tazRelation count="500" from="13" to="11"/>
      <tazRelation count="650" from="13" to="12"/>
      <tazRelation count="300" from="13" to="14"/>
      <tazRelation count="350" from="13" to="15"/>
      <tazRelation count="300" from="13" to="16"/>
      <tazRelation count="250" from="13" to="17"/>
      <tazRelation count="50" from="13" to="18"/>
      <tazRelation count="150" from="13" to="19"/>
      <tazRelation count="300" from="13" to="20"/>
      <tazRelation count="300" from="13" to="21"/>
      <tazRelation count="650" from="13" to="22"/>
      <tazRelation count="400" from="13" to="23"/>
      <tazRelation count="400" from="13" to="24"/>
      <tazRelation count="150" from="14" to="1"/>
      <tazRelation count="50" from="14" to="2"/>
      <tazRelation count="50" from="14" to="3"/>
      <tazRelation count="250" from="14" to="4"/>
      <tazRelation count="50" from="14" to="5"/>
      <tazRelation count="50" from="14" to="6"/>
      <tazRelation count="100" from="14" to="7"/>
      <tazRelation count="200" from="14" to="8"/>
      <tazRelation count="300" from="14" to="9"/>
      <tazRelation count="1050" from="14" to="10"/>
      <tazRelation count="800" from="14" to="11"/>
      <tazRelation count="350" from="14" to="12"/>
      <tazRelation count="300" from="14" to="13"/>
      <tazRelation count="650" from="14" to="15"/>
      <tazRelation count="350" from="14" to="16"/>
      <tazRelation count="350" from="14" to="17"/>
      <tazRelation count="50" from="14" to="18"/>
      <tazRelation count="150" from="14" to="19"/>
      <tazRelation count="250" from="14" to="20"/>
      <tazRelation count="200" from="14" to="21"/>
      <tazRelation count="600" from="14" to="22"/>
      <tazRelation count="550" from="14" to="23"/>
      <tazRelation count="200" from="14" to="24"/>
      <tazRelation count="250" from="15" to="1"/>
      <tazRelation count="50" from="15" to="2"/>
      <tazRelation count="50" from="15" to="3"/>
      <tazRelation count="250" from="15" to="4"/>
      <tazRelation count="100" from="15" to="5"/>
      <tazRelation count="100" from="15" to="6"/>
      <tazRelation count="250" from="15" to="7"/>
      <tazRelation count="300" from="15" to="8"/>
      <tazRelation count="500" from="15" to="9"/>
      <tazRelation count="2000" from="15" to="10"/>
      <tazRelation count="700" from="15" to="11"/>
      <tazRelation count="350" from="15" to="12"/>
      <tazRelation count="350" from="15" to="13"/>
      <tazRelation count="650" from="15" to="14"/>
      <tazRelation count="600" from="15" to="16"/>
      <tazRelation count="750" from="15" to="17"/>
      <tazRelation count="100" from="15" to="18"/>
      <tazRelation count="400" from="15" to="19"/>
      <tazRelation count="550" from="15" to="20"/>
      <tazRelation count="400" from="15" to="21"/>
      <tazRelation count="1300" from="15" to="22"/>
      <tazRelation count="500" from="15" to="23"/>
      <tazRelation count="200" from="15" to="24"/>
      <tazRelation count="250" from="16" to="1"/>
      <tazRelation count="200" from="16" to="2"/>
      <tazRelation count="100" from="16" to="3"/>
      <tazRelation count="400" from="16" to="4"/>
      <tazRelation count="250" from="16" to="5"/>
      <tazRelation count="450" from="16" to="6"/>
      <tazRelation count="700" from="16" to="7"/>
      <tazRelation count="1100" from="16" to="8"/>
      <tazRelation count="700" from="16" to="9"/>
      <tazRelation count="2200" from="16" to="10"/>
      <tazRelation count="700" from="16" to="11"/>
      <tazRelation count="350" from="16" to="12"/>
      <tazRelation count="300" from="16" to="13"/>
      <tazRelation count="350" from="16" to="14"/>
      <tazRelation count="600" from="16" to="15"/>
      <tazRelation count="1400" from="16" to="17"/>
      <tazRelation count="250" from="16" to="18"/>
      <tazRelation count="650" from="16" to="19"/>
      <tazRelation count="800" from="16" to="20"/>
      <tazRelation count="300" from="16" to="21"/>
      <tazRelation count="600" from="16" to="22"/>
      <tazRelation count="250" from="16" to="23"/>
      <tazRelation count="150" from="16" to="24"/>
      <tazRelation count="200" from="17" to="1"/>
      <tazRelation count="100" from="17" to="2"/>
      <tazRelation count="50" from="17" to="3"/>
      <tazRelation count="250" from="17" to="4"/>
      <tazRelation count="100" from="17" to="5"/>
      <tazRelation count="250" from="17" to="6"/>
      <tazRelation count="500" from="17" to="7"/>
      <tazRelation count="700" from="17" to="8"/>
      <tazRelation count="450" from="17" to="9"/>
      <tazRelation count="1950" from="17" to="10"/>
      <tazRelation count="500" from="17" to="11"/>
      <tazRelation count="300" from="17" to="12"/>
      <tazRelation count="250" from="17" to="13"/>
      <tazRelation count="350" from="17" to="14"/>
      <tazRelation count="750" from="17" to="15"/>
      <tazRelation count="1400" from="17" to="16"/>
      <tazRelation count="300" from="17" to="18"/>
      <tazRelation count="850" from="17" to="19"/>
      <tazRelation count="850" from="17" to="20"/>
      <tazRelation count="300" from="17" to="21"/>
      <tazRelation count="850" from="17" to="22"/>
      <tazRelation count="300" from="17" to="23"/>
      <tazRelation count="150" from="17" to="24"/>
      <tazRelation count="50" from="18" to="1"/>
      <tazRelation count="50" from="18" to="4"/>
      <tazRelation count="50" from="18" to="6"/>
      <tazRelation count="100" from="18" to="7"/>
      <tazRelation count="150" from="18" to="8"/>
      <tazRelation count="100" from="18" to="9"/>
      <tazRelation count="350" from="18" to="10"/>
      <tazRelation count="100" from="18" to="11"/>
      <tazRelation count="100" from="18" to="12"/>
      <tazRelation count="50" from="18" to="13"/>
      <tazRelation count="50" from="18" to="14"/>
      <tazRelation count="100" from="18" to="15"/>
      <tazRelation count="250" from="18" to="16"/>
      <tazRelation count="300" from="18" to="17"/>
      <tazRelation count="150" from="18" to="19"/>
      <tazRelation count="200" from="18" to="20"/>
      <tazRelation count="50" from="18" to="21"/>
      <tazRelation count="150" from="18" to="22"/>
      <tazRelation count="50" from="18" to="23"/>
      <tazRelation count="150" from="19" to="1"/>
      <tazRelation count="50" from="19" to="2"/>
      <tazRelation count="100" from="19" to="4"/>
      <tazRelation count="50" from="19" to="5"/>
      <tazRelation count="100" from="19" to="6"/>
      <tazRelation count="200" from="19" to="7"/>
      <tazRelation count="350" from="19" to="8"/>
      <tazRelation count="200" from="19" to="9"/>
      <tazRelation count="900" from="19" to="10"/>
      <tazRelation count="200" from="19" to="11"/>
      <tazRelation count="150" from="19" to="12"/>
      <tazRelation count="150" from="19" to="13"/>
      <tazRelation count="150" from="19" to="14"/>
      <tazRelation count="400" from="19" to="15"/>
      <tazRelation count="650" from="19" to="16"/>
      <tazRelation count="850" from="19" to="17"/>
      <tazRelation count="150" from="19" to="18"/>
      <tazRelation count="600" from="19" to="20"/>
      <tazRelation count="200" from="19" to="21"/>
      <tazRelation count="600" from="19" to="22"/>
      <tazRelation count="150" from="19" to="23"/>
      <tazRelation count="50" from="19" to="24"/>
      <tazRelation count="150" from="20" to="1"/>
      <tazRelation count="50" from="20" to="2"/>
      <tazRelation count="150" from="20" to="4"/>
      <tazRelation count="50" from="20" to="5"/>
      <tazRelation count="150" from="20" to="6"/>
      <tazRelation count="250" from="20" to="7"/>
      <tazRelation count="450" from="20" to="8"/>
      <tazRelation count="300" from="20" to="9"/>
      <tazRelation count="1250" from="20" to="10"/>
      <tazRelation count="300" from="20" to="11"/>
      <tazRelation count="250" from="20" to="12"/>
      <tazRelation count="300" from="20" to="13"/>
      <tazRelation count="250" from="20" to="14"/>
      <tazRelation count="550" from="20" to="15"/>
      <tazRelation count="800" from="20" to="16"/>
      <tazRelation count="850" from="20" to="17"/>
      <tazRelation count="200" from="20" to="18"/>
      <tazRelation count="600" from="20" to="19"/>
      <tazRelation count="600" from="20" to="21"/>
      <tazRelation count="1200" from="20" to="22"/>
      <tazRelation count="350" from="20" to="23"/>
      <tazRelation count="200" from="20" to="24"/>
      <tazRelation count="50" from="21" to="1"/>
      <tazRelation count="100" from="21" to="4"/>
      <tazRelation count="50" from="21" to="5"/>
      <tazRelation count="50" from="21" to="6"/>
      <tazRelation count="100" from="21" to="7"/>
      <tazRelation count="200" from="21" to="8"/>
      <tazRelation count="150" from="21" to="9"/>
      <tazRelation count="600" from="21" to="10"/>
      <tazRelation count="200" from="21" to="11"/>
      <tazRelation count="150" from="21" to="12"/>
      <tazRelation count="300" from="21" to="13"/>
      <tazRelation count="200" from="21" to="14"/>
      <tazRelation count="400" from="21" to="15"/>
      <tazRelation count="300" from="21" to="16"/>
      <tazRelation count="300" from="21" to="17"/>
      <tazRelation count="50" from="21" to="18"/>
      <tazRelation count="200" from="21" to="19"/>
      <tazRelation count="600" from="21" to="20"/>
      <tazRelation count="900" from="21" to="22"/>
      <tazRelation count="350" from="21" to="23"/>
      <tazRelation count="250" from="21" to="24"/>
      <tazRelation count="200" from="22" to="1"/>
      <tazRelation count="50" from="22" to="2"/>
      <tazRelation count="50" from="22" to="3"/>
      <tazRelation count="200" from="22" to="4"/>
      <tazRelation count="100" from="22" to="5"/>
      <tazRelation count="100" from="22" to="6"/>
      <tazRelation count="250" from="22" to="7"/>
      <tazRelation count="250" from="22" to="8"/>
      <tazRelation count="350" from="22" to="9"/>
      <tazRelation count="1300" from="22" to="10"/>
      <tazRelation count="550" from="22" to="11"/>
      <tazRelation count="350" from="22" to="12"/>
      <tazRelation count="650" from="22" to="13"/>
      <tazRelation count="600" from="22" to="14"/>
      <tazRelation count="1300" from="22" to="15"/>
      <tazRelation count="600" from="22" to="16"/>
      <tazRelation count="850" from="22" to="17"/>
      <tazRelation count="150" from="22" to="18"/>
      <tazRelation count="600" from="22" to="19"/>
      <tazRelation count="1200" from="22" to="20"/>
      <tazRelation count="900" from="22" to="21"/>
      <tazRelation count="1050" from="22" to="23"/>
      <tazRelation count="550" from="22" to="24"/>
      <tazRelation count="150" from="23" to="1"/>
      <tazRelation count="50" from="23" to="3"/>
      <tazRelation count="250" from="23" to="4"/>
      <tazRelation count="50" from="23" to="5"/>
      <tazRelation count="50" from="23" to="6"/>
      <tazRelation count="100" from="23" to="7"/>
      <tazRelation count="150" from="23" to="8"/>
      <tazRelation count="250" from="23" to="9"/>
      <tazRelation count="900" from="23" to="10"/>
      <tazRelation count="650" from="23" to="11"/>
      <tazRelation count="350" from="23" to="12"/>
      <tazRelation count="400" from="23" to="13"/>
      <tazRelation count="550" from="23" to="14"/>
      <tazRelation count="500" from="23" to="15"/>
      <tazRelation count="250" from="23" to="16"/>
      <tazRelation count="300" from="23" to="17"/>
      <tazRelation count="50" from="23" to="18"/>
      <tazRelation count="150" from="23" to="19"/>
      <tazRelation count="350" from="23" to="20"/>
      <tazRelation count="350" from="23" to="21"/>
      <tazRelation count="1050" from="23" to="22"/>
      <tazRelation count="350" from="23" to="24"/>
      <tazRelation count="50" from="24" to="1"/>
      <tazRelation count="100" from="24" to="4"/>
      <tazRelation count="50" from="24" to="6"/>
      <tazRelation count="50" from="24" to="7"/>
      <tazRelation count="100" from="24" to="8"/>
      <tazRelation count="100" from="24" to="9"/>
      <tazRelation count="400" from="24" to="10"/>
      <tazRelation count="300" from="24" to="11"/>
      <tazRelation count="250" from="24" to="12"/>
      <tazRelation count="350" from="24" to="13"/>
      <tazRelation count="200" from="24" to="14"/>
      <tazRelation count="200" from="24" to="15"/>
      <tazRelation count="150" from="24" to="16"/>
      <tazRelation count="150" from="24" to="17"/>
      <tazRelation count="50" from="24" to="19"/>
      <tazRelation count="200" from="24" to="20"/>
      <tazRelation count="250" from="24" to="21"/>
      <tazRelation count="550" from="24" to="22"/>
      <tazRelation count="350" from="24" to="23"/>
    </interval>
</data>